<?xml version="1.0" encoding="UTF-8"?>

<!-- generated on 2024-10-15 20:57:15.260737 by osmWebWizard.py v1_20_0+0002-343658e7c64
<configuration>
    <net-file value="C:\Users\Lynkrd\Sumo\2024-10-15-20-57-03\osm.net.xml.gz"/>
    <output-trip-file value="C:\Users\Lynkrd\Sumo\2024-10-15-20-57-03\osm.pedestrian.trips.xml"/>
    <route-file value="C:\Users\Lynkrd\Sumo\2024-10-15-20-57-03\osm.pedestrian.rou.xml"/>
    <pedestrians value="True"/>
    <prefix value="ped"/>
    <vehicle-class value="pedestrian"/>
    <fringe-factor value="1"/>
    <max-distance value="2000.0"/>
    <insertion-density value="10.0"/>
</configuration>
-->

<!-- generated on 2024-10-15 20:57:15 by Eclipse SUMO duarouter Version 1.20.0
<configuration xmlns:xsi="http://www.w3.org/2001/XMLSchema-instance" xsi:noNamespaceSchemaLocation="http://sumo.dlr.de/xsd/duarouterConfiguration.xsd">

    <input>
        <net-file value="C:\Users\Lynkrd\Sumo\2024-10-15-20-57-03\osm.net.xml.gz"/>
        <route-files value="C:\Users\Lynkrd\Sumo\2024-10-15-20-57-03\osm.pedestrian.trips.xml"/>
    </input>

    <output>
        <output-file value="C:\Users\Lynkrd\Sumo\2024-10-15-20-57-03\osm.pedestrian.rou.xml"/>
        <alternatives-output value="NUL"/>
    </output>

    <time>
        <begin value="0.0"/>
        <end value="3600.0"/>
    </time>

    <report>
        <no-warnings value="true"/>
        <ignore-errors value="true"/>
        <no-step-log value="true"/>
    </report>

</configuration>
-->

<routes xmlns:xsi="http://www.w3.org/2001/XMLSchema-instance" xsi:noNamespaceSchemaLocation="http://sumo.dlr.de/xsd/routes_file.xsd">
    <vType id="ped_pedestrian" vClass="pedestrian"/>
    <person id="ped30" type="ped_pedestrian" depart="208.64">
        <walk edges="418153296 360926380#10 360926380#8 360926380#6 360926380#5 360926380#3 360926380#2 360926380#1 360926380#0 391275417#0 981022849 990169786 193131673 390523325#2 390523325#1"/>
    </person>
    <person id="ped41" type="ped_pedestrian" depart="285.15">
        <walk edges="990169786 193131673 390523325#2 390523325#1 505096629#0 980996796 -199422208#0 -938426330 406313403#0 406313403#1 978481204#0 368091905#1 344153330#1 301521097#1"/>
    </person>
    <person id="ped59" type="ped_pedestrian" depart="410.33">
        <walk edges="390523325#4 390523325#3 193131673 990169786 981022849 391275417#0 360926380#0 -406874975#5 -406874975#4 -406874975#3 -406874975#2 -406874975#1 -406874975#0 -360924346#6 324090724"/>
    </person>
    <person id="ped102" type="ped_pedestrian" depart="709.39">
        <walk edges="-381385343#0 -381385343#1 -381385337#1 -381385337#0 358977810#1 358980059 358980529 -358981139#0 -358981139#2 -358981139#3 -358981139#4 -360926380#12 -360926380#11 -360926380#10 -360926380#8 -360926380#6 -360926380#5 -360926380#3 -360926380#2 -360926380#1 -360926380#0 -391275417#1 -981022849 259692060#0 259692060#1 391275414#0 391275414#1"/>
    </person>
    <person id="ped122" type="ped_pedestrian" depart="848.48">
        <walk edges="-406874975#1 -406874975#2 -406874975#3 -406874975#4 -406874975#5 -360926380#1 -360926380#2 -360926380#3 -360926380#5 -360926380#6 -360926380#8 -360926380#10 -360926380#11 -360926380#12 -358981139#4 -358981139#3 -358981139#2 -358981139#0 358980529 358980059 358977810#1 -381385337#0 -381385337#1 381385343#1"/>
    </person>
    <person id="ped186" type="ped_pedestrian" depart="1293.59">
        <walk edges="-406313403#1 -406313403#0 406338918 199422208#0 199422208#1 -358980529 -358981139#0 -358981139#2 -358981139#3 418153302"/>
    </person>
    <person id="ped189" type="ped_pedestrian" depart="1314.45">
        <walk edges="-978481204#1 -406313403#1 -406313403#0 -938426330 -199422208#0 980996796 505096629#0 390523325#1 390523325#2 -193131673 -990169786 990178878 390523337#1 390523335 -390523331"/>
    </person>
    <person id="ped195" type="ped_pedestrian" depart="1356.18">
        <walk edges="193131674#4 193131674#3 -390523337#1 -990178878 -981022849 -391275417#1 910969916#0 360923675#2"/>
    </person>
    <person id="ped202" type="ped_pedestrian" depart="1404.87">
        <walk edges="417718965 -358981140#0 -358981139#4 -358981139#3 -358981139#2 -358981139#0 358980529 358980059 358977810#1 -381385337#0 -381385337#1 381385343#1"/>
    </person>
    <person id="ped221" type="ped_pedestrian" depart="1537.01">
        <walk edges="418153281 -358981139#2 -358981139#3 -358981139#4 -358981140#0 -358981140#1 -358981140#2 -989387678#1 -360924346#0 -360924346#1 -360924346#2 -360924346#3 324090731 324090723#1 361776704 329288365#1"/>
    </person>
    <person id="ped238" type="ped_pedestrian" depart="1655.24">
        <walk edges="420979637#0 966300974#4 966300974#3 966300966#0 966300966#1 966300967#1"/>
    </person>
    <person id="ped257" type="ped_pedestrian" depart="1787.38">
        <walk edges="363200415 -259692060#0 -990178878 -390523337#1 390523335"/>
    </person>
    <person id="ped265" type="ped_pedestrian" depart="1843.02">
        <walk edges="381385339 -381385343#1 -381385337#1 -381385337#0 358977810#1 358980059 358980529 -358981139#0 -358981139#2 -358981139#3 -358981139#4 -358981140#0 -358981140#1 -358981140#2"/>
    </person>
    <person id="ped303" type="ped_pedestrian" depart="2107.30">
        <walk edges="381385337#0 358977810#1 358980059 358980529 -358981139#0 -358981139#2 -358981139#3 -358981139#4 -358981140#0 -358981140#1 -358981140#2 -417718993"/>
    </person>
    <person id="ped338" type="ped_pedestrian" depart="2350.72">
        <walk edges="360924346#6 406874975#0 406874975#1 406874975#2 406874975#3 406874975#4 406874975#5 360926380#0 391275417#0 981022849 990169786 193131673 -390523325#2"/>
    </person>
    <person id="ped340" type="ped_pedestrian" depart="2364.63">
        <walk edges="378137067 -378137121#1 378137121#2 193448358"/>
    </person>
    <person id="ped349" type="ped_pedestrian" depart="2427.22">
        <walk edges="-390523320#1 -390523320#0 -391275414#0 259692060#1 259692060#0 -981022849 -391275417#1 -360926380#0 -360926380#1 -360926380#2 -360926380#3 -360926380#5 -360926380#6 -360926380#8 -360926380#10 -360926380#11"/>
    </person>
    <person id="ped367" type="ped_pedestrian" depart="2552.41">
        <walk edges="-390523320#1 -390523320#0 -391275414#0 -259692060#1 -259692060#0 -990169786 -193131673 -390523325#2 -390523325#1 965245667#1"/>
    </person>
    <person id="ped395" type="ped_pedestrian" depart="2747.14">
        <walk edges="360923678#1 360923675#0 910969916#0 -391275417#1 -981022849 259692060#0 259692060#1 990174283"/>
    </person>
    <person id="ped436" type="ped_pedestrian" depart="3032.29">
        <walk edges="-418153302 -358981139#4 -360926380#12 -360926380#11 -360926380#10 -360926380#8 -360926380#6 -360926380#5 -360926380#3 -360926380#2 -360926380#1 -360926380#0 -910969916#1 360923675#0 360923678#2"/>
    </person>
    <person id="ped441" type="ped_pedestrian" depart="3067.06">
        <walk edges="358980529 358981139#0 358981139#2 358981139#3"/>
    </person>
    <person id="ped456" type="ped_pedestrian" depart="3171.38">
        <walk edges="-390523331 390523335 390523337#1 990178878 981022849 391275417#0 360926380#0 360926380#1 360926380#2 360926380#3 360926380#5 360926380#6 360926380#8 360926380#10 360926380#11 360926380#12 -358981139#4 -358981139#3 -358981139#2 -358981139#0 358980529 358980059 358977810#1 -381385337#0 381385337#1"/>
    </person>
    <person id="ped462" type="ped_pedestrian" depart="3213.11">
        <walk edges="406874975#5 -360926380#1 -360926380#2 -360926380#3 -360926380#5 -360926380#6 -360926380#8 -360926380#10 -360926380#11 -360926380#12 -358981139#4 -358981139#3 -358981139#2 -358981139#0 358980529 358980059 358977810#1 381385337#0"/>
    </person>
    <person id="ped463" type="ped_pedestrian" depart="3220.07">
        <walk edges="-418153294 360926380#1 -406874975#5 -406874975#4 -406874975#3 -406874975#2 -406874975#1 -406874975#0 -360924346#6 -360924346#5 -360924346#4 -360924346#3 -360924346#2 -360924346#1 -360924346#0"/>
    </person>
    <person id="ped469" type="ped_pedestrian" depart="3261.79">
        <walk edges="-193131674#1 391275414#0 259692060#1 259692060#0 -981022849 -391275417#1 -360926380#0 -406874975#5 -406874975#4 -406874975#3 -406874975#2 -406874975#1 -406874975#0 -360924346#6 -360924346#5 -360924346#4 324090731"/>
    </person>
    <person id="ped489" type="ped_pedestrian" depart="3400.89">
        <walk edges="966300965#1 966300965#0 966300966#1 966300966#0 966300974#2 966300974#1 421080676"/>
    </person>
    <person id="ped498" type="ped_pedestrian" depart="3463.48">
        <walk edges="-360926380#2 -360926380#1 360926380#0 391275417#0 981022849 990169786 193131673 390523325#2 390523325#1 350086554#1"/>
    </person>
</routes>
