<?xml version="1.0" encoding="UTF-8"?>

<!-- generated on 2024-10-15 20:57:10.474258 by osmWebWizard.py v1_20_0+0002-343658e7c64
<configuration>
    <net-file value="C:\Users\Lynkrd\Sumo\2024-10-15-20-57-03\osm.net.xml.gz"/>
    <output-trip-file value="C:\Users\Lynkrd\Sumo\2024-10-15-20-57-03\osm.bicycle.trips.xml"/>
    <route-file value="C:\Users\Lynkrd\Sumo\2024-10-15-20-57-03\osm.bicycle.rou.xml"/>
    <prefix value="bike"/>
    <trip-attributes value="departLane=&quot;best&quot;"/>
    <fringe-start-attributes value="departSpeed=&quot;max&quot;"/>
    <vehicle-class value="bicycle"/>
    <fringe-factor value="2"/>
    <vclass value="bicycle"/>
    <via-edge-types value="highway.motorway,highway.motorway_link,highway.trunk_link,highway.primary_link,highway.secondary_link,highway.tertiary_link"/>
    <max-distance value="8000.0"/>
    <remove-loops value="True"/>
    <validate value="True"/>
    <insertion-density value="6.0"/>
</configuration>
-->

<!-- generated on 2024-10-15 20:57:10 by Eclipse SUMO duarouter Version 1.20.0
<configuration xmlns:xsi="http://www.w3.org/2001/XMLSchema-instance" xsi:noNamespaceSchemaLocation="http://sumo.dlr.de/xsd/duarouterConfiguration.xsd">

    <input>
        <net-file value="C:\Users\Lynkrd\Sumo\2024-10-15-20-57-03\osm.net.xml.gz"/>
        <route-files value="C:\Users\Lynkrd\Sumo\2024-10-15-20-57-03\osm.bicycle.trips.xml"/>
    </input>

    <output>
        <output-file value="C:\Users\Lynkrd\Sumo\2024-10-15-20-57-03\osm.bicycle.trips.xml.tmp"/>
        <alternatives-output value="NUL"/>
        <write-trips value="true"/>
    </output>

    <processing>
        <remove-loops value="true"/>
    </processing>

    <time>
        <begin value="0.0"/>
        <end value="3600.0"/>
    </time>

    <report>
        <no-warnings value="true"/>
        <ignore-errors value="true"/>
        <no-step-log value="true"/>
    </report>

</configuration>
-->

<routes xmlns:xsi="http://www.w3.org/2001/XMLSchema-instance" xsi:noNamespaceSchemaLocation="http://sumo.dlr.de/xsd/routes_file.xsd">
    <vType id="bike_bicycle" vClass="bicycle"/>
    <trip id="bike0" type="bike_bicycle" depart="0.00" departLane="best" departSpeed="max" from="370750715" to="191712634#3"/>
    <trip id="bike1" type="bike_bicycle" depart="5.89" departLane="best" from="191712629#1" to="-363200421"/>
    <trip id="bike2" type="bike_bicycle" depart="11.79" departLane="best" from="383966412#1" to="343333449#5"/>
    <trip id="bike3" type="bike_bicycle" depart="17.68" departLane="best" from="504902891" to="199366530"/>
    <trip id="bike4" type="bike_bicycle" depart="23.57" departLane="best" departSpeed="max" from="303057435" to="191712639#3"/>
    <trip id="bike5" type="bike_bicycle" depart="29.46" departLane="best" departSpeed="max" from="-589683551#1" to="191712630#1"/>
    <trip id="bike6" type="bike_bicycle" depart="35.36" departLane="best" from="-191712639#4" to="-363058693"/>
    <trip id="bike7" type="bike_bicycle" depart="41.25" departLane="best" departSpeed="max" from="377839871" to="193131831#3"/>
    <trip id="bike8" type="bike_bicycle" depart="47.14" departLane="best" from="-612369170#0" to="197203406"/>
    <trip id="bike9" type="bike_bicycle" depart="53.04" departLane="best" departSpeed="max" from="418153301" to="-184515612"/>
    <trip id="bike10" type="bike_bicycle" depart="58.93" departLane="best" departSpeed="max" from="418153298" to="358980056#0"/>
    <trip id="bike12" type="bike_bicycle" depart="70.71" departLane="best" from="938426329#0" to="-383966409"/>
    <trip id="bike13" type="bike_bicycle" depart="76.61" departLane="best" from="239625514#1" to="239625514#3"/>
    <trip id="bike14" type="bike_bicycle" depart="82.50" departLane="best" departSpeed="max" from="421575892#0" to="-226668204"/>
    <trip id="bike15" type="bike_bicycle" depart="88.39" departLane="best" departSpeed="max" from="418153299" to="360924349#2"/>
    <trip id="bike16" type="bike_bicycle" depart="94.29" departLane="best" from="361474367#0" to="978487725"/>
    <trip id="bike17" type="bike_bicycle" depart="100.18" departLane="best" from="239625513#1" to="193447766#2"/>
    <trip id="bike18" type="bike_bicycle" depart="106.07" departLane="best" departSpeed="max" from="421360736" to="256806337#0"/>
    <trip id="bike20" type="bike_bicycle" depart="117.86" departLane="best" from="379721661#1" to="193131676#0"/>
    <trip id="bike21" type="bike_bicycle" depart="123.75" departLane="best" from="-955172864#1" to="-378137116"/>
    <trip id="bike22" type="bike_bicycle" depart="129.64" departLane="best" from="-197203393#8" to="-363345691#0"/>
    <trip id="bike23" type="bike_bicycle" depart="135.54" departLane="best" from="256100015" to="-378137079"/>
    <trip id="bike24" type="bike_bicycle" depart="141.43" departLane="best" from="910259244#0" to="-407201945"/>
    <trip id="bike26" type="bike_bicycle" depart="153.22" departLane="best" from="-184515852#2" to="-612369172#1"/>
    <trip id="bike27" type="bike_bicycle" depart="159.11" departLane="best" from="373701312#3" to="-239630753#1"/>
    <trip id="bike28" type="bike_bicycle" depart="165.00" departLane="best" from="378137121#2" to="360924349#1"/>
    <trip id="bike29" type="bike_bicycle" depart="170.89" departLane="best" from="373701312#3" to="-418153289"/>
    <trip id="bike30" type="bike_bicycle" depart="176.79" departLane="best" from="982221190#4" to="286693521"/>
    <trip id="bike32" type="bike_bicycle" depart="188.57" departLane="best" departSpeed="max" from="421559302" to="368559564#0"/>
    <trip id="bike33" type="bike_bicycle" depart="194.47" departLane="best" from="-955172864#3" to="-191712639#7"/>
    <trip id="bike34" type="bike_bicycle" depart="200.36" departLane="best" from="910259244#0" to="-378137052"/>
    <trip id="bike35" type="bike_bicycle" depart="206.25" departLane="best" departSpeed="max" from="-589663336" to="812683581"/>
    <trip id="bike36" type="bike_bicycle" depart="212.14" departLane="best" from="49874191#2" to="-381385324"/>
    <trip id="bike37" type="bike_bicycle" depart="218.04" departLane="best" departSpeed="max" from="377839886" to="-420979636#0"/>
    <trip id="bike40" type="bike_bicycle" depart="235.72" departLane="best" departSpeed="max" from="363058662" to="-377839888"/>
    <trip id="bike41" type="bike_bicycle" depart="241.61" departLane="best" departSpeed="max" from="363058702" to="528730472#0"/>
    <trip id="bike42" type="bike_bicycle" depart="247.50" departLane="best" from="259426346#1" to="-363200418"/>
    <trip id="bike43" type="bike_bicycle" depart="253.39" departLane="best" from="990169787" to="-191712634#2"/>
    <trip id="bike44" type="bike_bicycle" depart="259.29" departLane="best" from="390523333" to="-193131678#0"/>
    <trip id="bike45" type="bike_bicycle" depart="265.18" departLane="best" departSpeed="max" from="-301511505" to="259426348#1"/>
    <trip id="bike46" type="bike_bicycle" depart="271.07" departLane="best" departSpeed="max" from="417718993" to="-421559297"/>
    <trip id="bike47" type="bike_bicycle" depart="276.97" departLane="best" departSpeed="max" from="-194071346" to="-418153293"/>
    <trip id="bike48" type="bike_bicycle" depart="282.86" departLane="best" from="990164787" to="193131673"/>
    <trip id="bike50" type="bike_bicycle" depart="294.65" departLane="best" from="184515852#2" to="360923887#4"/>
    <trip id="bike51" type="bike_bicycle" depart="300.54" departLane="best" departSpeed="max" from="378137111" to="193131678#1"/>
    <trip id="bike52" type="bike_bicycle" depart="306.43" departLane="best" from="-184515852#2" to="301511496#0"/>
    <trip id="bike53" type="bike_bicycle" depart="312.32" departLane="best" from="-304288176#1" to="-525453702#2"/>
    <trip id="bike54" type="bike_bicycle" depart="318.22" departLane="best" departSpeed="max" from="332720970" to="910969920#0"/>
    <trip id="bike55" type="bike_bicycle" depart="324.11" departLane="best" from="49874191#3" to="-377839888"/>
    <trip id="bike57" type="bike_bicycle" depart="335.90" departLane="best" from="539264858#3" to="49874187#3"/>
    <trip id="bike58" type="bike_bicycle" depart="341.79" departLane="best" from="193131668#1" to="271375900"/>
    <trip id="bike59" type="bike_bicycle" depart="347.68" departLane="best" departSpeed="max" from="363200423" to="-360923889#1"/>
    <trip id="bike60" type="bike_bicycle" depart="353.57" departLane="best" departSpeed="max" from="395804669" to="193131678#4"/>
    <trip id="bike61" type="bike_bicycle" depart="359.47" departLane="best" from="406874975#3" to="193131674#1"/>
    <trip id="bike62" type="bike_bicycle" depart="365.36" departLane="best" departSpeed="max" from="-1123481632" to="-381385343#1"/>
    <trip id="bike63" type="bike_bicycle" depart="371.25" departLane="best" from="-191712632#1" to="589663386"/>
    <trip id="bike64" type="bike_bicycle" depart="377.15" departLane="best" from="49874191#0" to="-391278435"/>
    <trip id="bike65" type="bike_bicycle" depart="383.04" departLane="best" from="193131674#1" to="-193448356#1"/>
    <trip id="bike66" type="bike_bicycle" depart="388.93" departLane="best" from="49874191#0" to="869909234#0"/>
    <trip id="bike67" type="bike_bicycle" depart="394.82" departLane="best" from="199383174" to="-184515332#3"/>
    <trip id="bike68" type="bike_bicycle" depart="400.72" departLane="best" departSpeed="max" from="-194071351" to="363058712#0"/>
    <trip id="bike69" type="bike_bicycle" depart="406.61" departLane="best" departSpeed="max" from="395804676" to="-324090738"/>
    <trip id="bike70" type="bike_bicycle" depart="412.50" departLane="best" from="344330267#2" to="193447763#0"/>
    <trip id="bike71" type="bike_bicycle" depart="418.40" departLane="best" from="184515851" to="49874189#2"/>
    <trip id="bike72" type="bike_bicycle" depart="424.29" departLane="best" departSpeed="max" from="304288176#0" to="-363200410"/>
    <trip id="bike73" type="bike_bicycle" depart="430.18" departLane="best" from="361476384#1" to="360924349#2"/>
    <trip id="bike74" type="bike_bicycle" depart="436.07" departLane="best" departSpeed="max" from="-395804677" to="-381385321"/>
    <trip id="bike75" type="bike_bicycle" depart="441.97" departLane="best" departSpeed="max" from="989405402#0" to="49793796#0"/>
    <trip id="bike77" type="bike_bicycle" depart="453.75" departLane="best" from="343333446#1" to="-363200423"/>
    <trip id="bike78" type="bike_bicycle" depart="459.65" departLane="best" from="-194071345#0" to="197203405#2"/>
    <trip id="bike79" type="bike_bicycle" depart="465.54" departLane="best" from="964456961" to="-363200419"/>
    <trip id="bike80" type="bike_bicycle" depart="471.43" departLane="best" departSpeed="max" from="-194071353#1" to="260136266#2"/>
    <trip id="bike81" type="bike_bicycle" depart="477.33" departLane="best" from="-955172864#3" to="539264852"/>
    <trip id="bike82" type="bike_bicycle" depart="483.22" departLane="best" from="49732812#3" to="-194071355"/>
    <trip id="bike83" type="bike_bicycle" depart="489.11" departLane="best" from="982221190#3" to="330357696#4"/>
    <trip id="bike85" type="bike_bicycle" depart="500.90" departLane="best" from="910969913#1" to="194071346"/>
    <trip id="bike86" type="bike_bicycle" depart="506.79" departLane="best" from="344153346#0" to="-373701312#5"/>
    <trip id="bike87" type="bike_bicycle" depart="512.68" departLane="best" departSpeed="max" from="418153300" to="-363058674"/>
    <trip id="bike88" type="bike_bicycle" depart="518.58" departLane="best" from="239630753#2" to="-421575896#0"/>
    <trip id="bike89" type="bike_bicycle" depart="524.47" departLane="best" from="304288176#1" to="-982221190#4"/>
    <trip id="bike90" type="bike_bicycle" depart="530.36" departLane="best" from="383966404#3" to="-343333446#0"/>
    <trip id="bike91" type="bike_bicycle" depart="536.25" departLane="best" from="982140509#0" to="-239630753#2"/>
    <trip id="bike92" type="bike_bicycle" depart="542.15" departLane="best" from="259692060#1" to="-383966412#2"/>
    <trip id="bike94" type="bike_bicycle" depart="553.93" departLane="best" from="384717992#2" to="-612369172#1"/>
    <trip id="bike95" type="bike_bicycle" depart="559.83" departLane="best" departSpeed="max" from="303057435" to="-378137086"/>
    <trip id="bike96" type="bike_bicycle" depart="565.72" departLane="best" from="184515323#2" to="540758086"/>
    <trip id="bike97" type="bike_bicycle" depart="571.61" departLane="best" departSpeed="max" from="324090738" to="49793796#0"/>
    <trip id="bike98" type="bike_bicycle" depart="577.50" departLane="best" departSpeed="max" from="363058611" to="193134171"/>
    <trip id="bike99" type="bike_bicycle" depart="583.40" departLane="best" from="990591472#0" to="395804673"/>
    <trip id="bike101" type="bike_bicycle" depart="595.18" departLane="best" departSpeed="max" from="421575896#0" to="-361477241#0"/>
    <trip id="bike102" type="bike_bicycle" depart="601.08" departLane="best" from="358980056#1" to="-363200412"/>
    <trip id="bike103" type="bike_bicycle" depart="606.97" departLane="best" from="259426348#2" to="-193448357#0"/>
    <trip id="bike104" type="bike_bicycle" depart="612.86" departLane="best" from="-239625514#1" to="-982221190#1"/>
    <trip id="bike105" type="bike_bicycle" depart="618.75" departLane="best" from="184515851" to="-373701312#3"/>
    <trip id="bike106" type="bike_bicycle" depart="624.65" departLane="best" departSpeed="max" from="332720972" to="-421559297"/>
    <trip id="bike107" type="bike_bicycle" depart="630.54" departLane="best" from="938426329#0" to="990169786"/>
    <trip id="bike108" type="bike_bicycle" depart="636.43" departLane="best" departSpeed="max" from="363058629" to="360923887#14"/>
    <trip id="bike110" type="bike_bicycle" depart="648.22" departLane="best" from="978472962#0" to="-194109207#1"/>
    <trip id="bike111" type="bike_bicycle" depart="654.11" departLane="best" departSpeed="max" from="361476385" to="361474367#1"/>
    <trip id="bike112" type="bike_bicycle" depart="660.01" departLane="best" departSpeed="max" from="-193448359" to="-197203393#4"/>
    <trip id="bike113" type="bike_bicycle" depart="665.90" departLane="best" from="360923887#1" to="465538936#2"/>
    <trip id="bike115" type="bike_bicycle" depart="677.68" departLane="best" from="197203393#8" to="-363058666"/>
    <trip id="bike116" type="bike_bicycle" depart="683.58" departLane="best" departSpeed="max" from="363200411" to="343333449#2"/>
    <trip id="bike117" type="bike_bicycle" depart="689.47" departLane="best" from="-982221190#0" to="-305176895#0"/>
    <trip id="bike118" type="bike_bicycle" depart="695.36" departLane="best" from="504902884" to="-363345727"/>
    <trip id="bike119" type="bike_bicycle" depart="701.26" departLane="best" departSpeed="max" from="363200411" to="256806337#0"/>
    <trip id="bike120" type="bike_bicycle" depart="707.15" departLane="best" from="301521097#1" to="-197203393#3"/>
    <trip id="bike121" type="bike_bicycle" depart="713.04" departLane="best" from="360926380#2" to="611902762#0"/>
    <trip id="bike122" type="bike_bicycle" depart="718.93" departLane="best" from="-417718989" to="360923887#10"/>
    <trip id="bike123" type="bike_bicycle" depart="724.83" departLane="best" from="-982221190#4" to="-420979636#0"/>
    <trip id="bike124" type="bike_bicycle" depart="730.72" departLane="best" departSpeed="max" from="378137079" to="-378315957"/>
    <trip id="bike125" type="bike_bicycle" depart="736.61" departLane="best" from="193131830#1" to="-361476384#2"/>
    <trip id="bike126" type="bike_bicycle" depart="742.51" departLane="best" from="194109207#0" to="-964456961"/>
    <trip id="bike127" type="bike_bicycle" depart="748.40" departLane="best" from="990178878" to="990169787"/>
    <trip id="bike128" type="bike_bicycle" depart="754.29" departLane="best" from="-194109207#1" to="-363200412"/>
    <trip id="bike129" type="bike_bicycle" depart="760.18" departLane="best" from="184515851" to="589663393#4"/>
    <trip id="bike130" type="bike_bicycle" depart="766.08" departLane="best" from="49874191#4" to="49874191#4"/>
    <trip id="bike131" type="bike_bicycle" depart="771.97" departLane="best" from="199419804#4" to="-361474363#1"/>
    <trip id="bike132" type="bike_bicycle" depart="777.86" departLane="best" departSpeed="max" from="421414542" to="358981130#3"/>
    <trip id="bike133" type="bike_bicycle" depart="783.76" departLane="best" departSpeed="max" from="363200426" to="-982221190#3"/>
    <trip id="bike134" type="bike_bicycle" depart="789.65" departLane="best" departSpeed="max" from="377839881" to="-184515614#1"/>
    <trip id="bike135" type="bike_bicycle" depart="795.54" departLane="best" departSpeed="max" from="420979638" to="-378315957"/>
    <trip id="bike136" type="bike_bicycle" depart="801.44" departLane="best" departSpeed="max" from="378137062" to="-659429371#1"/>
    <trip id="bike137" type="bike_bicycle" depart="807.33" departLane="best" from="358981137" to="305135198#0"/>
    <trip id="bike139" type="bike_bicycle" depart="819.11" departLane="best" from="191706896#2" to="-226740774#1"/>
    <trip id="bike140" type="bike_bicycle" depart="825.01" departLane="best" departSpeed="max" from="381385343#0" to="-363058700"/>
    <trip id="bike141" type="bike_bicycle" depart="830.90" departLane="best" from="368091947" to="-377839892"/>
    <trip id="bike142" type="bike_bicycle" depart="836.79" departLane="best" from="358980529" to="539264852"/>
    <trip id="bike143" type="bike_bicycle" depart="842.69" departLane="best" departSpeed="max" from="421575889#0" to="-226668204"/>
    <trip id="bike144" type="bike_bicycle" depart="848.58" departLane="best" from="304288176#1" to="-378137074"/>
    <trip id="bike145" type="bike_bicycle" depart="854.47" departLane="best" from="184515330#0" to="368091899#1"/>
    <trip id="bike146" type="bike_bicycle" depart="860.36" departLane="best" from="368559565#1" to="-377839886"/>
    <trip id="bike147" type="bike_bicycle" depart="866.26" departLane="best" from="390523320#2" to="193447766#1"/>
    <trip id="bike148" type="bike_bicycle" depart="872.15" departLane="best" from="305135198#1" to="-184515850#1"/>
    <trip id="bike149" type="bike_bicycle" depart="878.04" departLane="best" from="-194338160#1" to="226668200"/>
    <trip id="bike150" type="bike_bicycle" depart="883.94" departLane="best" from="184515323#5" to="193131831#4"/>
    <trip id="bike151" type="bike_bicycle" depart="889.83" departLane="best" departSpeed="max" from="421414542" to="-197203393#1"/>
    <trip id="bike152" type="bike_bicycle" depart="895.72" departLane="best" from="-361477242" to="-324090737"/>
    <trip id="bike153" type="bike_bicycle" depart="901.61" departLane="best" from="193131674#2" to="528730474"/>
    <trip id="bike154" type="bike_bicycle" depart="907.51" departLane="best" departSpeed="max" from="418153281" to="49793793#3"/>
    <trip id="bike156" type="bike_bicycle" depart="919.29" departLane="best" from="184515323#1" to="-256806337#1"/>
    <trip id="bike157" type="bike_bicycle" depart="925.19" departLane="best" departSpeed="max" from="407103914" to="504322133#4"/>
    <trip id="bike158" type="bike_bicycle" depart="931.08" departLane="best" from="260136266#6" to="256806338#0"/>
    <trip id="bike159" type="bike_bicycle" depart="936.97" departLane="best" departSpeed="max" from="-363199285" to="589663387"/>
    <trip id="bike160" type="bike_bicycle" depart="942.86" departLane="best" from="49874181#1" to="980937242"/>
    <trip id="bike161" type="bike_bicycle" depart="948.76" departLane="best" departSpeed="max" from="418153302" to="504322133#0"/>
    <trip id="bike162" type="bike_bicycle" depart="954.65" departLane="best" from="-191712639#1" to="360926380#5"/>
    <trip id="bike163" type="bike_bicycle" depart="960.54" departLane="best" from="-193447771#1" to="589663393#0"/>
    <trip id="bike164" type="bike_bicycle" depart="966.44" departLane="best" departSpeed="max" from="418153295" to="49874181#3"/>
    <trip id="bike165" type="bike_bicycle" depart="972.33" departLane="best" departSpeed="max" from="418153302" to="-378137050"/>
    <trip id="bike166" type="bike_bicycle" depart="978.22" departLane="best" departSpeed="max" from="417718972" to="-257050425"/>
    <trip id="bike167" type="bike_bicycle" depart="984.12" departLane="best" from="49874187#3" to="49793793#0"/>
    <trip id="bike168" type="bike_bicycle" depart="990.01" departLane="best" from="-748889413" to="390523325#5"/>
    <trip id="bike169" type="bike_bicycle" depart="995.90" departLane="best" from="343333446#1" to="-378315972"/>
    <trip id="bike170" type="bike_bicycle" depart="1001.79" departLane="best" departSpeed="max" from="417719006" to="-363200425"/>
    <trip id="bike171" type="bike_bicycle" depart="1007.69" departLane="best" from="-191712637#0" to="-363058687#0"/>
    <trip id="bike172" type="bike_bicycle" depart="1013.58" departLane="best" from="-193447768" to="49874181#4"/>
    <trip id="bike173" type="bike_bicycle" depart="1019.47" departLane="best" from="978456483#0" to="-378137086"/>
    <trip id="bike174" type="bike_bicycle" depart="1025.37" departLane="best" departSpeed="max" from="370750719" to="-421080676"/>
    <trip id="bike175" type="bike_bicycle" depart="1031.26" departLane="best" from="981022849" to="193131677"/>
    <trip id="bike176" type="bike_bicycle" depart="1037.15" departLane="best" from="659429371#1" to="305135198#0"/>
    <trip id="bike178" type="bike_bicycle" depart="1048.94" departLane="best" from="965260917" to="-377839895"/>
    <trip id="bike179" type="bike_bicycle" depart="1054.83" departLane="best" departSpeed="max" from="-301511504" to="-525453702#1"/>
    <trip id="bike180" type="bike_bicycle" depart="1060.72" departLane="best" from="383966404#2" to="-381385323"/>
    <trip id="bike181" type="bike_bicycle" depart="1066.62" departLane="best" departSpeed="max" from="363200421" to="191712639#0"/>
    <trip id="bike182" type="bike_bicycle" depart="1072.51" departLane="best" from="256100016#0" to="194071352#1"/>
    <trip id="bike183" type="bike_bicycle" depart="1078.40" departLane="best" from="-184515324#1" to="358981139#4"/>
    <trip id="bike185" type="bike_bicycle" depart="1090.19" departLane="best" from="361474367#4" to="360923887#2"/>
    <trip id="bike186" type="bike_bicycle" depart="1096.08" departLane="best" from="390523325#1" to="330357699#0"/>
    <trip id="bike187" type="bike_bicycle" depart="1101.97" departLane="best" from="197203412#2" to="-194071354"/>
    <trip id="bike189" type="bike_bicycle" depart="1113.76" departLane="best" from="193131678#1" to="417718989"/>
    <trip id="bike190" type="bike_bicycle" depart="1119.65" departLane="best" departSpeed="max" from="-381385346#0" to="-378315959"/>
    <trip id="bike191" type="bike_bicycle" depart="1125.54" departLane="best" from="193131674#4" to="-421325880"/>
    <trip id="bike192" type="bike_bicycle" depart="1131.44" departLane="best" from="259692060#0" to="-378315946"/>
    <trip id="bike193" type="bike_bicycle" depart="1137.33" departLane="best" from="-343333449#8" to="-421414546"/>
    <trip id="bike194" type="bike_bicycle" depart="1143.22" departLane="best" from="800539988" to="343333449#6"/>
    <trip id="bike195" type="bike_bicycle" depart="1149.12" departLane="best" from="528730478" to="256100016#1"/>
    <trip id="bike196" type="bike_bicycle" depart="1155.01" departLane="best" from="193131669#1" to="193133897#1"/>
    <trip id="bike197" type="bike_bicycle" depart="1160.90" departLane="best" departSpeed="max" from="-1123481632" to="-378137100#1"/>
    <trip id="bike198" type="bike_bicycle" depart="1166.80" departLane="best" from="-305176890#0" to="-194109207#3"/>
    <trip id="bike199" type="bike_bicycle" depart="1172.69" departLane="best" departSpeed="max" from="377839886" to="-982221190#10"/>
    <trip id="bike200" type="bike_bicycle" depart="1178.58" departLane="best" departSpeed="max" from="324090737" to="-363200412"/>
    <trip id="bike201" type="bike_bicycle" depart="1184.47" departLane="best" from="344153348#0" to="534715113"/>
    <trip id="bike203" type="bike_bicycle" depart="1196.26" departLane="best" from="-197203412#2" to="-191712639#6"/>
    <trip id="bike204" type="bike_bicycle" depart="1202.15" departLane="best" from="368091944#2" to="-383966405#1"/>
    <trip id="bike205" type="bike_bicycle" depart="1208.05" departLane="best" departSpeed="max" from="421080676" to="361476384#1"/>
    <trip id="bike206" type="bike_bicycle" depart="1213.94" departLane="best" departSpeed="max" from="378137086" to="-363200422"/>
    <trip id="bike207" type="bike_bicycle" depart="1219.83" departLane="best" departSpeed="max" from="-395804673" to="-191712634#2"/>
    <trip id="bike210" type="bike_bicycle" depart="1237.51" departLane="best" departSpeed="max" from="301511503" to="259692060#1"/>
    <trip id="bike212" type="bike_bicycle" depart="1249.30" departLane="best" from="358981138" to="-363345715"/>
    <trip id="bike213" type="bike_bicycle" depart="1255.19" departLane="best" from="377839887" to="-184515332#2"/>
    <trip id="bike216" type="bike_bicycle" depart="1272.87" departLane="best" from="-381385337#1" to="955172864#0"/>
    <trip id="bike217" type="bike_bicycle" depart="1278.76" departLane="best" from="360924349#3" to="-193131900#0"/>
    <trip id="bike218" type="bike_bicycle" depart="1284.65" departLane="best" from="184515323#1" to="417718989"/>
    <trip id="bike219" type="bike_bicycle" depart="1290.55" departLane="best" departSpeed="max" from="332720973" to="383966404#0"/>
    <trip id="bike220" type="bike_bicycle" depart="1296.44" departLane="best" departSpeed="max" from="378137071" to="-982221190#4"/>
    <trip id="bike221" type="bike_bicycle" depart="1302.33" departLane="best" departSpeed="max" from="363200412" to="368559564#0"/>
    <trip id="bike222" type="bike_bicycle" depart="1308.22" departLane="best" from="504902887" to="240733801"/>
    <trip id="bike223" type="bike_bicycle" depart="1314.12" departLane="best" from="381385343#1" to="191712630#0"/>
    <trip id="bike225" type="bike_bicycle" depart="1325.90" departLane="best" from="525453702#1" to="361257111#2"/>
    <trip id="bike228" type="bike_bicycle" depart="1343.58" departLane="best" departSpeed="max" from="395804676" to="193131667#1"/>
    <trip id="bike229" type="bike_bicycle" depart="1349.48" departLane="best" departSpeed="max" from="363345715" to="-378137071"/>
    <trip id="bike230" type="bike_bicycle" depart="1355.37" departLane="best" from="197203393#3" to="-378137100#0"/>
    <trip id="bike231" type="bike_bicycle" depart="1361.26" departLane="best" from="191706896#1" to="-381385333"/>
    <trip id="bike232" type="bike_bicycle" depart="1367.15" departLane="best" from="361476384#2" to="-343333447"/>
    <trip id="bike233" type="bike_bicycle" depart="1373.05" departLane="best" from="965260917" to="345040499#1"/>
    <trip id="bike234" type="bike_bicycle" depart="1378.94" departLane="best" departSpeed="max" from="381385322#0" to="194071345#5"/>
    <trip id="bike235" type="bike_bicycle" depart="1384.83" departLane="best" from="260136270" to="193131830#6"/>
    <trip id="bike236" type="bike_bicycle" depart="1390.73" departLane="best" from="301521094#0" to="-363058712#1"/>
    <trip id="bike237" type="bike_bicycle" depart="1396.62" departLane="best" departSpeed="max" from="303057432#0" to="539264851#3"/>
    <trip id="bike238" type="bike_bicycle" depart="1402.51" departLane="best" departSpeed="max" from="363058702" to="348787801#1"/>
    <trip id="bike239" type="bike_bicycle" depart="1408.40" departLane="best" from="475997382#3" to="363345692#0"/>
    <trip id="bike240" type="bike_bicycle" depart="1414.30" departLane="best" from="-239625514#3" to="-184515332#3"/>
    <trip id="bike241" type="bike_bicycle" depart="1420.19" departLane="best" from="194109207#2" to="-361477241#0"/>
    <trip id="bike242" type="bike_bicycle" depart="1426.08" departLane="best" from="528730477#0" to="910969919"/>
    <trip id="bike243" type="bike_bicycle" depart="1431.98" departLane="best" from="301521097#1" to="361474367#0"/>
    <trip id="bike244" type="bike_bicycle" depart="1437.87" departLane="best" from="361477241#4" to="226668200"/>
    <trip id="bike245" type="bike_bicycle" depart="1443.76" departLane="best" from="612369170#1" to="-363200418"/>
    <trip id="bike246" type="bike_bicycle" depart="1449.65" departLane="best" departSpeed="max" from="324090725" to="-191712639#2"/>
    <trip id="bike247" type="bike_bicycle" depart="1455.55" departLane="best" from="-193448357#0" to="343333449#9"/>
    <trip id="bike248" type="bike_bicycle" depart="1461.44" departLane="best" from="260136266#3" to="-361476386"/>
    <trip id="bike249" type="bike_bicycle" depart="1467.33" departLane="best" from="344153327#1" to="-324090738"/>
    <trip id="bike250" type="bike_bicycle" depart="1473.23" departLane="best" from="363345706" to="-191712637#0"/>
    <trip id="bike251" type="bike_bicycle" depart="1479.12" departLane="best" from="-256813427#3" to="193601466"/>
    <trip id="bike253" type="bike_bicycle" depart="1490.90" departLane="best" from="360923889#0" to="-982058343"/>
    <trip id="bike254" type="bike_bicycle" depart="1496.80" departLane="best" from="-193447770#1" to="-418153289"/>
    <trip id="bike255" type="bike_bicycle" depart="1502.69" departLane="best" departSpeed="max" from="-589663336" to="-381930420"/>
    <trip id="bike256" type="bike_bicycle" depart="1508.58" departLane="best" departSpeed="max" from="395804668" to="-418153289"/>
    <trip id="bike258" type="bike_bicycle" depart="1520.37" departLane="best" from="184515323#6" to="-197203405#0"/>
    <trip id="bike259" type="bike_bicycle" depart="1526.26" departLane="best" from="-191712632#1" to="193131678#4"/>