<?xml version="1.0" encoding="UTF-8"?>

<!-- generated on 2024-10-15 20:57:16.198756 by osmWebWizard.py v1_20_0+0002-343658e7c64
<configuration>
    <net-file value="C:\Users\Lynkrd\Sumo\2024-10-15-20-57-03\osm.net.xml.gz"/>
    <output-trip-file value="C:\Users\Lynkrd\Sumo\2024-10-15-20-57-03\osm.truck.trips.xml"/>
    <route-file value="C:\Users\Lynkrd\Sumo\2024-10-15-20-57-03\osm.truck.rou.xml"/>
    <prefix value="truck"/>
    <trip-attributes value="departLane=&quot;best&quot;"/>
    <fringe-start-attributes value="departSpeed=&quot;max&quot;"/>
    <vehicle-class value="truck"/>
    <fringe-factor value="5"/>
    <vclass value="truck"/>
    <via-edge-types value="highway.motorway,highway.motorway_link,highway.trunk_link,highway.primary_link,highway.secondary_link,highway.tertiary_link"/>
    <min-distance value="600.0"/>
    <min-distance.fringe value="10.0"/>
    <remove-loops value="True"/>
    <validate value="True"/>
    <insertion-density value="8.0"/>
</configuration>
-->

<!-- generated on 2024-10-15 20:57:16 by Eclipse SUMO duarouter Version 1.20.0
<configuration xmlns:xsi="http://www.w3.org/2001/XMLSchema-instance" xsi:noNamespaceSchemaLocation="http://sumo.dlr.de/xsd/duarouterConfiguration.xsd">

    <input>
        <net-file value="C:\Users\Lynkrd\Sumo\2024-10-15-20-57-03\osm.net.xml.gz"/>
        <route-files value="C:\Users\Lynkrd\Sumo\2024-10-15-20-57-03\osm.truck.trips.xml"/>
    </input>

    <output>
        <output-file value="C:\Users\Lynkrd\Sumo\2024-10-15-20-57-03\osm.truck.trips.xml.tmp"/>
        <alternatives-output value="NUL"/>
        <write-trips value="true"/>
    </output>

    <processing>
        <remove-loops value="true"/>
    </processing>

    <time>
        <begin value="0.0"/>
        <end value="3600.0"/>
    </time>

    <report>
        <no-warnings value="true"/>
        <ignore-errors value="true"/>
        <no-step-log value="true"/>
    </report>

</configuration>
-->

<routes xmlns:xsi="http://www.w3.org/2001/XMLSchema-instance" xsi:noNamespaceSchemaLocation="http://sumo.dlr.de/xsd/routes_file.xsd">
    <vType id="truck_truck" vClass="truck"/>
    <trip id="truck0" type="truck_truck" depart="0.00" departLane="best" from="360924346#3" to="-191704964#0"/>
    <trip id="truck1" type="truck_truck" depart="6.20" departLane="best" from="390523320#1" to="361476384#3"/>
    <trip id="truck2" type="truck_truck" depart="12.39" departLane="best" from="539540913#0" to="-193131675#0"/>
    <trip id="truck3" type="truck_truck" depart="18.59" departLane="best" from="193131830#1" to="191712630#2"/>
    <trip id="truck4" type="truck_truck" depart="24.78" departLane="best" from="384717992#2" to="259426348#0"/>
    <trip id="truck5" type="truck_truck" depart="30.98" departLane="best" from="-191712629#1" to="-360924351#0"/>
    <trip id="truck6" type="truck_truck" depart="37.17" departLane="best" departSpeed="max" from="360924351#0" to="305176892"/>
    <trip id="truck7" type="truck_truck" depart="43.37" departLane="best" from="49874186#3" to="-184515332#0"/>
    <trip id="truck8" type="truck_truck" depart="49.56" departLane="best" from="979878879#0" to="191706895#0"/>
    <trip id="truck9" type="truck_truck" depart="55.76" departLane="best" from="194109207#1" to="193131678#2"/>
    <trip id="truck10" type="truck_truck" depart="61.95" departLane="best" departSpeed="max" from="504902893" to="358981133#0"/>
    <trip id="truck11" type="truck_truck" depart="68.15" departLane="best" from="49874186#1" to="390523325#5"/>
    <trip id="truck12" type="truck_truck" depart="74.35" departLane="best" departSpeed="max" from="305135157#0" to="982140508#0"/>
    <trip id="truck13" type="truck_truck" depart="80.54" departLane="best" from="193131668#0" to="330357696#2"/>
    <trip id="truck14" type="truck_truck" depart="86.74" departLane="best" from="528730477#0" to="344153345#1"/>
    <trip id="truck15" type="truck_truck" depart="92.93" departLane="best" from="368091899#2" to="-191712634#0"/>
    <trip id="truck16" type="truck_truck" depart="99.13" departLane="best" departSpeed="max" from="-390526209" to="-984944335"/>
    <trip id="truck17" type="truck_truck" depart="105.32" departLane="best" from="-193447771#2" to="-373701312#5"/>
    <trip id="truck18" type="truck_truck" depart="111.52" departLane="best" from="360923889#0" to="191725189"/>
    <trip id="truck19" type="truck_truck" depart="117.71" departLane="best" from="193131246#2" to="-361476384#3"/>
    <trip id="truck20" type="truck_truck" depart="123.91" departLane="best" from="-982221190#1" to="406313403#0"/>
    <trip id="truck21" type="truck_truck" depart="130.10" departLane="best" from="344330268" to="390523325#4"/>
    <trip id="truck22" type="truck_truck" depart="136.30" departLane="best" from="-343333449#2" to="193131668#3"/>
    <trip id="truck23" type="truck_truck" depart="142.50" departLane="best" departSpeed="max" from="989405402#0" to="360924349#0"/>
    <trip id="truck24" type="truck_truck" depart="148.69" departLane="best" from="330357699#3" to="363199285"/>
    <trip id="truck25" type="truck_truck" depart="154.89" departLane="best" departSpeed="max" from="-390526209" to="-191712631"/>
    <trip id="truck26" type="truck_truck" depart="161.08" departLane="best" from="184515850#1" to="-812670577"/>
    <trip id="truck28" type="truck_truck" depart="173.47" departLane="best" from="539264858#0" to="184515614#2"/>
    <trip id="truck29" type="truck_truck" depart="179.67" departLane="best" from="-239625514#0" to="199419804#0"/>
    <trip id="truck30" type="truck_truck" depart="185.86" departLane="best" from="-982058343" to="390526208"/>
    <trip id="truck31" type="truck_truck" depart="192.06" departLane="best" from="-343333449#3" to="-659429371#0"/>
    <trip id="truck33" type="truck_truck" depart="204.45" departLane="best" from="193131674#2" to="-361476386"/>
    <trip id="truck35" type="truck_truck" depart="216.84" departLane="best" from="49732812#1" to="193447771#1"/>
    <trip id="truck36" type="truck_truck" depart="223.04" departLane="best" from="-193131676#0" to="193131669#2"/>
    <trip id="truck37" type="truck_truck" depart="229.23" departLane="best" from="981022850#0" to="539264851#3"/>
    <trip id="truck38" type="truck_truck" depart="235.43" departLane="best" departSpeed="max" from="-184515614#2" to="384717985#1"/>
    <trip id="truck39" type="truck_truck" depart="241.62" departLane="best" departSpeed="max" from="361476385" to="301521094#2"/>
    <trip id="truck40" type="truck_truck" depart="247.82" departLane="best" from="-982221190#1" to="360924349#1"/>
    <trip id="truck41" type="truck_truck" depart="254.01" departLane="best" from="197203393#9" to="978471464"/>
    <trip id="truck42" type="truck_truck" depart="260.21" departLane="best" from="256100016#2" to="343333449#4"/>
    <trip id="truck44" type="truck_truck" depart="272.60" departLane="best" departSpeed="max" from="184515332#0" to="360924346#5"/>
    <trip id="truck45" type="truck_truck" depart="278.80" departLane="best" from="358981138" to="239625514#3"/>
    <trip id="truck46" type="truck_truck" depart="284.99" departLane="best" from="184515324#0" to="191704490#1"/>
    <trip id="truck47" type="truck_truck" depart="291.19" departLane="best" from="539264858#3" to="504338188#0"/>
    <trip id="truck48" type="truck_truck" depart="297.38" departLane="best" departSpeed="max" from="184515615" to="-191712639#1"/>
    <trip id="truck49" type="truck_truck" depart="303.58" departLane="best" from="539264858#3" to="978436287"/>
    <trip id="truck50" type="truck_truck" depart="309.77" departLane="best" from="-193448358" to="239625515"/>
    <trip id="truck51" type="truck_truck" depart="315.97" departLane="best" from="193131678#1" to="391278438"/>
    <trip id="truck53" type="truck_truck" depart="328.36" departLane="best" from="199422208#0" to="330357696#0"/>
    <trip id="truck54" type="truck_truck" depart="334.55" departLane="best" from="-982058343" to="539264858#8"/>
    <trip id="truck55" type="truck_truck" depart="340.75" departLane="best" from="193131831#5" to="-361476385"/>
    <trip id="truck56" type="truck_truck" depart="346.95" departLane="best" departSpeed="max" from="194109207#0" to="301511496#2"/>
    <trip id="truck57" type="truck_truck" depart="353.14" departLane="best" from="-226740774#0" to="-373701308"/>
    <trip id="truck58" type="truck_truck" depart="359.34" departLane="best" from="-390526210" to="-361477241#0"/>
    <trip id="truck59" type="truck_truck" depart="365.53" departLane="best" from="-193131678#3" to="360923887#8"/>
    <trip id="truck61" type="truck_truck" depart="377.92" departLane="best" from="525453702#0" to="-384717999"/>
    <trip id="truck62" type="truck_truck" depart="384.12" departLane="best" from="938426328#1" to="344153327#1"/>
    <trip id="truck64" type="truck_truck" depart="396.51" departLane="best" from="49874186#1" to="-360922575"/>
    <trip id="truck65" type="truck_truck" depart="402.70" departLane="best" from="-194338160#1" to="193448359"/>
    <trip id="truck66" type="truck_truck" depart="408.90" departLane="best" from="193131831#5" to="199422207#1"/>
    <trip id="truck67" type="truck_truck" depart="415.10" departLane="best" from="373701312#7" to="-384718000#0"/>
    <trip id="truck68" type="truck_truck" depart="421.29" departLane="best" from="-982221190#9" to="-193131900#0"/>
    <trip id="truck69" type="truck_truck" depart="427.49" departLane="best" from="-193131675#1" to="191706896#1"/>
    <trip id="truck71" type="truck_truck" depart="439.88" departLane="best" from="194109207#2" to="539264851#3"/>
    <trip id="truck72" type="truck_truck" depart="446.07" departLane="best" from="-990591472#1" to="504902891"/>
    <trip id="truck73" type="truck_truck" depart="452.27" departLane="best" from="981013922" to="910259243#0"/>
    <trip id="truck74" type="truck_truck" depart="458.46" departLane="best" departSpeed="max" from="504902893" to="-301511503"/>
    <trip id="truck75" type="truck_truck" depart="464.66" departLane="best" from="226668200" to="-361476385"/>
    <trip id="truck76" type="truck_truck" depart="470.85" departLane="best" from="193131674#4" to="-191712639#2"/>
    <trip id="truck77" type="truck_truck" depart="477.05" departLane="best" from="193131668#1" to="-984937468"/>
    <trip id="truck80" type="truck_truck" depart="495.64" departLane="best" from="979878879#0" to="990174281"/>
    <trip id="truck81" type="truck_truck" depart="501.83" departLane="best" departSpeed="max" from="-301511505" to="184515323#2"/>
    <trip id="truck82" type="truck_truck" depart="508.03" departLane="best" from="981013922" to="344153348#0"/>
    <trip id="truck83" type="truck_truck" depart="514.22" departLane="best" from="-193131669#2" to="507846387#0"/>
    <trip id="truck84" type="truck_truck" depart="520.42" departLane="best" from="-305176892" to="978519139"/>
    <trip id="truck85" type="truck_truck" depart="526.61" departLane="best" from="358980059" to="361476384#1"/>
    <trip id="truck86" type="truck_truck" depart="532.81" departLane="best" from="-391278435" to="-197203393#7"/>
    <trip id="truck87" type="truck_truck" depart="539.00" departLane="best" from="358980059" to="360923887#1"/>
    <trip id="truck88" type="truck_truck" depart="545.20" departLane="best" from="193131831#1" to="507846387#0"/>
    <trip id="truck89" type="truck_truck" depart="551.40" departLane="best" from="525453702#0" to="193131676#1"/>
    <trip id="truck90" type="truck_truck" depart="557.59" departLane="best" from="361474366#1" to="184515323#5"/>
    <trip id="truck91" type="truck_truck" depart="563.79" departLane="best" from="184515851" to="391274253#1"/>
    <trip id="truck92" type="truck_truck" depart="569.98" departLane="best" departSpeed="max" from="-193131678#4" to="199366530"/>
    <trip id="truck93" type="truck_truck" depart="576.18" departLane="best" from="990591472#0" to="990174281"/>
    <trip id="truck94" type="truck_truck" depart="582.37" departLane="best" departSpeed="max" from="-193131678#4" to="-361476385"/>
    <trip id="truck95" type="truck_truck" depart="588.57" departLane="best" from="-982058343" to="912237642#0"/>
    <trip id="truck96" type="truck_truck" depart="594.76" departLane="best" from="504322133#3" to="373701300#1"/>
    <trip id="truck97" type="truck_truck" depart="600.96" departLane="best" from="360926380#11" to="-184515332#0"/>
    <trip id="truck98" type="truck_truck" depart="607.15" departLane="best" from="49874189#3" to="184515323#5"/>
    <trip id="truck99" type="truck_truck" depart="613.35" departLane="best" from="360926608#5" to="955172864#0"/>
    <trip id="truck100" type="truck_truck" depart="619.55" departLane="best" from="239630753#2" to="-197203393#1"/>
    <trip id="truck102" type="truck_truck" depart="631.94" departLane="best" from="-982221190#5" to="358981133#1"/>
    <trip id="truck104" type="truck_truck" depart="644.33" departLane="best" from="360923887#8" to="-659429371#0"/>
    <trip id="truck105" type="truck_truck" depart="650.52" departLane="best" from="-226740774#1" to="589683551#1"/>
    <trip id="truck106" type="truck_truck" depart="656.72" departLane="best" departSpeed="max" from="504902893" to="-193131678#0"/>
    <trip id="truck107" type="truck_truck" depart="662.91" departLane="best" from="193131831#5" to="980964299"/>
    <trip id="truck108" type="truck_truck" depart="669.11" departLane="best" from="184515330#1" to="406874975#3"/>
    <trip id="truck109" type="truck_truck" depart="675.30" departLane="best" from="360924346#0" to="-659429371#0"/>
    <trip id="truck110" type="truck_truck" depart="681.50" departLane="best" from="390523325#4" to="330357696#2"/>
    <trip id="truck111" type="truck_truck" depart="687.70" departLane="best" from="193446312#0" to="-184515332#2"/>
    <trip id="truck112" type="truck_truck" depart="693.89" departLane="best" departSpeed="max" from="-193131678#4" to="539340430#2"/>
    <trip id="truck113" type="truck_truck" depart="700.09" departLane="best" departSpeed="max" from="633932891" to="-305176895#0"/>
    <trip id="truck115" type="truck_truck" depart="712.48" departLane="best" from="630341822" to="361476384#4"/>
    <trip id="truck116" type="truck_truck" depart="718.67" departLane="best" from="659429371#1" to="-193448356#0"/>
    <trip id="truck117" type="truck_truck" depart="724.87" departLane="best" from="465538936#0" to="539340430#2"/>
    <trip id="truck118" type="truck_truck" depart="731.06" departLane="best" departSpeed="max" from="193131678#0" to="360923887#10"/>
    <trip id="truck119" type="truck_truck" depart="737.26" departLane="best" departSpeed="max" from="-301511505" to="630341823#0"/>
    <trip id="truck120" type="truck_truck" depart="743.45" departLane="best" from="184515323#5" to="-982221190#1"/>
    <trip id="truck121" type="truck_truck" depart="749.65" departLane="best" from="330357696#4" to="539340430#0"/>
    <trip id="truck122" type="truck_truck" depart="755.85" departLane="best" departSpeed="max" from="-191704964#1" to="390526206#1"/>
    <trip id="truck123" type="truck_truck" depart="762.04" departLane="best" from="191712629#2" to="910969916#0"/>
    <trip id="truck124" type="truck_truck" depart="768.24" departLane="best" from="49874181#1" to="539264854"/>
    <trip id="truck125" type="truck_truck" depart="774.43" departLane="best" departSpeed="max" from="49732812#0" to="193448358"/>
    <trip id="truck126" type="truck_truck" depart="780.63" departLane="best" from="-390523329" to="49874189#8"/>
    <trip id="truck128" type="truck_truck" depart="793.02" departLane="best" departSpeed="max" from="-191704964#1" to="-360922575"/>
    <trip id="truck129" type="truck_truck" depart="799.21" departLane="best" from="191706896#2" to="539264855"/>
    <trip id="truck130" type="truck_truck" depart="805.41" departLane="best" from="980996797" to="-982221190#1"/>
    <trip id="truck131" type="truck_truck" depart="811.60" departLane="best" from="-982221190#5" to="301521094#2"/>
    <trip id="truck132" type="truck_truck" depart="817.80" departLane="best" from="981022850#0" to="343333449#4"/>
    <trip id="truck133" type="truck_truck" depart="824.00" departLane="best" from="373701312#6" to="184515614#2"/>
    <trip id="truck134" type="truck_truck" depart="830.19" departLane="best" from="358981133#0" to="260136266#2"/>
    <trip id="truck136" type="truck_truck" depart="842.58" departLane="best" from="-184515324#1" to="869930051"/>
    <trip id="truck137" type="truck_truck" depart="848.78" departLane="best" departSpeed="max" from="305135157#0" to="384717985#0"/>
    <trip id="truck138" type="truck_truck" depart="854.97" departLane="best" from="390523325#5" to="-361474367#1"/>
    <trip id="truck139" type="truck_truck" depart="861.17" departLane="best" from="191712639#2" to="-193131668#1"/>
    <trip id="truck140" type="truck_truck" depart="867.36" departLane="best" from="360926608#5" to="191704963#2"/>
    <trip id="truck141" type="truck_truck" depart="873.56" departLane="best" departSpeed="max" from="184515850#0" to="-525453702#2"/>
    <trip id="truck143" type="truck_truck" depart="885.95" departLane="best" departSpeed="max" from="184515615" to="193131830#1"/>
    <trip id="truck144" type="truck_truck" depart="892.15" departLane="best" from="193131675#1" to="184515323#0"/>
    <trip id="truck145" type="truck_truck" depart="898.34" departLane="best" from="-239625514#3" to="193134171"/>
    <trip id="truck146" type="truck_truck" depart="904.54" departLane="best" from="-955172864#2" to="361476384#3"/>
    <trip id="truck147" type="truck_truck" depart="910.73" departLane="best" from="184515324#0" to="-982221190#9"/>
    <trip id="truck148" type="truck_truck" depart="916.93" departLane="best" from="-193447771#2" to="344153353#1"/>
    <trip id="truck149" type="truck_truck" depart="923.12" departLane="best" from="194109207#1" to="-361476385"/>
    <trip id="truck152" type="truck_truck" depart="941.71" departLane="best" from="193448357#1" to="260136266#6"/>
    <trip id="truck153" type="truck_truck" depart="947.90" departLane="best" from="360923887#7" to="191704964#1"/>
    <trip id="truck154" type="truck_truck" depart="954.10" departLane="best" from="49874191#4" to="390564837#2"/>
    <trip id="truck155" type="truck_truck" depart="960.30" departLane="best" from="361474367#0" to="-373701308"/>
    <trip id="truck156" type="truck_truck" depart="966.49" departLane="best" departSpeed="max" from="-363199285" to="-191704964#0"/>
    <trip id="truck157" type="truck_truck" depart="972.69" departLane="best" departSpeed="max" from="-589683551#1" to="226668200"/>
    <trip id="truck158" type="truck_truck" depart="978.88" departLane="best" from="505096629#0" to="-193131669#0"/>
    <trip id="truck159" type="truck_truck" depart="985.08" departLane="best" from="361477241#0" to="368091947"/>
    <trip id="truck160" type="truck_truck" depart="991.27" departLane="best" from="239630753#1" to="-390523331"/>
    <trip id="truck161" type="truck_truck" depart="997.47" departLane="best" from="360926380#2" to="-184515332#0"/>
    <trip id="truck163" type="truck_truck" depart="1009.86" departLane="best" from="358981137" to="978487723#0"/>
    <trip id="truck164" type="truck_truck" depart="1016.05" departLane="best" from="260136266#7" to="-191712635#0"/>
    <trip id="truck165" type="truck_truck" depart="1022.25" departLane="best" from="659429371#1" to="528730470"/>
    <trip id="truck167" type="truck_truck" depart="1034.64" departLane="best" from="982140509#0" to="989387678#0"/>
    <trip id="truck169" type="truck_truck" depart="1047.03" departLane="best" from="539540913#0" to="358981140#2"/>
    <trip id="truck172" type="truck_truck" depart="1065.62" departLane="best" from="611902762#0" to="390564832#0"/>
    <trip id="truck173" type="truck_truck" depart="1071.81" departLane="best" from="199422207#0" to="-611902762#0"/>
    <trip id="truck174" type="truck_truck" depart="1078.01" departLane="best" from="611902762#0" to="360924346#4"/>
    <trip id="truck175" type="truck_truck" depart="1084.20" departLane="best" from="406313403#1" to="301511504"/>
    <trip id="truck176" type="truck_truck" depart="1090.40" departLane="best" from="360923887#14" to="955172864#3"/>
    <trip id="truck177" type="truck_truck" depart="1096.60" departLane="best" from="193134171" to="-982221190#6"/>
    <trip id="truck178" type="truck_truck" depart="1102.79" departLane="best" from="-982221190#4" to="184515851"/>
    <trip id="truck179" type="truck_truck" depart="1108.99" departLane="best" from="305135157#1" to="-199422209#0"/>
    <trip id="truck180" type="truck_truck" depart="1115.18" departLane="best" departSpeed="max" from="193131678#0" to="305176890#0"/>
    <trip id="truck181" type="truck_truck" depart="1121.38" departLane="best" from="193131830#4" to="-361476384#0"/>
    <trip id="truck182" type="truck_truck" depart="1127.57" departLane="best" from="193131831#2" to="589683551#1"/>
    <trip id="truck183" type="truck_truck" depart="1133.77" departLane="best" from="344330269#0" to="368091944#4"/>
    <trip id="truck184" type="truck_truck" depart="1139.96" departLane="best" from="528730470" to="406606735#1"/>
    <trip id="truck185" type="truck_truck" depart="1146.16" departLane="best" from="193131668#2" to="-184515332#0"/>
    <trip id="truck186" type="truck_truck" depart="1152.35" departLane="best" departSpeed="max" from="191712634#0" to="391275414#1"/>
    <trip id="truck187" type="truck_truck" depart="1158.55" departLane="best" from="525268750" to="360926380#0"/>
    <trip id="truck188" type="truck_truck" depart="1164.75" departLane="best" from="193131831#0" to="390564832#1"/>
    <trip id="truck189" type="truck_truck" depart="1170.94" departLane="best" from="307900765#0" to="358981133#0"/>
    <trip id="truck190" type="truck_truck" depart="1177.14" departLane="best" from="193448358" to="-191712630#1"/>
    <trip id="truck191" type="truck_truck" depart="1183.33" departLane="best" from="360923887#1" to="-191712629#2"/>
    <trip id="truck192" type="truck_truck" depart="1189.53" departLane="best" departSpeed="max" from="193131672#0" to="343333449#4"/>
    <trip id="truck193" type="truck_truck" depart="1195.72" departLane="best" from="-191712629#2" to="360924349#3"/>
    <trip id="truck195" type="truck_truck" depart="1208.11" departLane="best" from="391278435" to="193131668#3"/>
    <trip id="truck197" type="truck_truck" depart="1220.50" departLane="best" from="-191704963#2" to="301521097#0"/>
    <trip id="truck199" type="truck_truck" depart="1232.90" departLane="best" from="-191704964#0" to="239625514#2"/>
    <trip id="truck200" type="truck_truck" depart="1239.09" departLane="best" from="-239625514#2" to="-361474367#0"/>
    <trip id="truck201" type="truck_truck" depart="1245.29" departLane="best" departSpeed="max" from="363200414" to="406606735#3"/>
    <trip id="truck202" type="truck_truck" depart="1251.48" departLane="best" from="-343333449#6" to="358981139#0"/>
    <trip id="truck203" type="truck_truck" depart="1257.68" departLane="best" from="390526206#0" to="-197203393#0"/>
    <trip id="truck204" type="truck_truck" depart="1263.87" departLane="best" from="49874191#3" to="980964296"/>
    <trip id="truck206" type="truck_truck" depart="1276.26" departLane="best" departSpeed="max" from="184515850#0" to="361476384#3"/>
    <trip id="truck207" type="truck_truck" depart="1282.46" departLane="best" departSpeed="max" from="980735079#0" to="193131676#1"/>
    <trip id="truck208" type="truck_truck" depart="1288.65" departLane="best" from="369024791#1" to="-193131671#0"/>
    <trip id="truck209" type="truck_truck" depart="1294.85" departLane="best" from="-361477241#0" to="360923887#3"/>
    <trip id="truck210" type="truck_truck" depart="1301.05" departLane="best" from="-197203393#5" to="360926380#1"/>
    <trip id="truck211" type="truck_truck" depart="1307.24" departLane="best" from="507846387#0" to="358981130#0"/>
    <trip id="truck212" type="truck_truck" depart="1313.44" departLane="best" from="259426346#0" to="191706896#3"/>
    <trip id="truck213" type="truck_truck" depart="1319.63" departLane="best" from="505096629#0" to="504322133#0"/>
    <trip id="truck214" type="truck_truck" depart="1325.83" departLane="best" from="368091944#2" to="-194109207#1"/>
    <trip id="truck215" type="truck_truck" depart="1332.02" departLane="best" from="384717992#1" to="980964299"/>
    <trip id="truck216" type="truck_truck" depart="1338.22" departLane="best" departSpeed="max" from="305135157#0" to="239625515"/>
    <trip id="truck217" type="truck_truck" depart="1344.41" departLane="best" from="193448358" to="-390523329"/>
    <trip id="truck218" type="truck_truck" depart="1350.61" departLane="best" from="504322133#0" to="-193131672#1"/>
    <trip id="truck219" type="truck_truck" depart="1356.80" departLane="best" departSpeed="max" from="197203411" to="358981142#0"/>
    <trip id="truck220" type="truck_truck" depart="1363.00" departLane="best" from="193131668#1" to="-191712630#1"/>
    <trip id="truck221" type="truck_truck" depart="1369.19" departLane="best" from="507846387#0" to="-343333449#8"/>
    <trip id="truck223" type="truck_truck" depart="1381.59" departLane="best" from="-191712632#0" to="539340429#1"/>
    <trip id="truck224" type="truck_truck" depart="1387.78" departLane="best" from="-226740774#1" to="-391278435"/>
    <trip id="truck225" type="truck_truck" depart="1393.98" departLane="best" from="361477241#0" to="360924351#1"/>
    <trip id="truck226" type="truck_truck" depart="1400.17" departLane="best" from="361477241#2" to="184515330#1"/>
    <trip id="truck227" type="truck_truck" depart="1406.37" departLane="best" from="301521094#3" to="-193448356#1"/>
    <trip id="truck228" type="truck_truck" depart="1412.56" departLane="best" from="390523333" to="191704964#0"/>
    <trip id="truck229" type="truck_truck" depart="1418.76" departLane="best" from="368091899#1" to="-835396535#1"/>
    <trip id="truck230" type="truck_truck" depart="1424.95" departLane="best" from="-361476384#3" to="-197203393#5"/>
    <trip id="truck231" type="truck_truck" depart="1431.15" departLane="best" departSpeed="max" from="305135157#0" to="406313403#0"/>
    <trip id="truck232" type="truck_truck" depart="1437.34" departLane="best" from="-200093441" to="390523320#1"/>
    <trip id="truck233" type="truck_truck" depart="1443.54" departLane="best" from="982221190#1" to="301511504"/>
    <trip id="truck234" type="truck_truck" depart="1449.74" departLane="best" from="184515323#0" to="193447771#1"/>
    <trip id="truck235" type="truck_truck" depart="1455.93" departLane="best" from="361477241#0" to="-373701308"/>
    <trip id="truck236" type="truck_truck" depart="1462.13" departLane="best" departSpeed="max" from="-360924351#1" to="-184515850#0"/>
    <trip id="truck237" type="truck_truck" depart="1468.32" departLane="best" from="305135147" to="955172864#2"/>
    <trip id="truck238" type="truck_truck" depart="1474.52" departLane="best" from="982140509#0" to="330357696#4"/>
    <trip id="truck240" type="truck_truck" depart="1486.91" departLane="best" from="539264851#1" to="240733801"/>
    <trip id="truck241" type="truck_truck" depart="1493.10" departLane="best" from="199366530" to="-197203393#0"/>
    <trip id="truck242" type="truck_truck" depart="1499.30" departLane="best" from="-361474363#1" to="-191712635#0"/>
    <trip id="truck243" type="truck_truck" depart="1505.49" departLane="best" from="49874191#1" to="193131678#2"/>
    <trip id="truck244" type="truck_truck" depart="1511.69" departLane="best" departSpeed="max" from="-193131678#4" to="360923887#6"/>
    <trip id="truck245" type="truck_truck" depart="1517.89" departLane="best" from="343333449#5" to="-184515324#0"/>
    <trip id="truck246" type="truck_truck" depart="1524.08" departLane="best" from="990164787" to="-197203393#4"/>
    <trip id="truck247" type="truck_truck" depart="1530.28" departLane="best" from="391278438" to="-358981138"/>
    <trip id="truck249" type="truck_truck" depart="1542.67" departLane="best" from="194109207#2" to="539264851#1"/>
    <trip id="truck250" type="truck_truck" depart="1548.86" departLane="best" departSpeed="max" from="989405402#0" to="-184515330#0"/>
    <trip id="truck251" type="truck_truck" depart="1555.06" departLane="best" from="373701312#6" to="-361476385"/>
    <trip id="truck252" type="truck_truck" depart="1561.25" departLane="best" from="360926608#0" to="-239630753#3"/>
    <trip id="truck253" type="truck_truck" depart="1567.45" departLane="best" from="344330273#0" to="193131669#2"/>
    <trip id="truck255" type="truck_truck" depart="1579.84" departLane="best" from="358980056#2" to="-990591472#1"/>
    <trip id="truck256" type="truck_truck" depart="1586.04" departLane="best" departSpeed="max" from="-390564844" to="-373701311#0"/>
    <trip id="truck257" type="truck_truck" depart="1592.23" departLane="best" from="368091899#2" to="197203406"/>
    <trip id="truck258" type="truck_truck" depart="1598.43" departLane="best" departSpeed="max" from="361476386" to="869909234#2"/>
    <trip id="truck259" type="truck_truck" depart="1604.62" departLane="best" departSpeed="max" from="49732812#0" to="360923887#15"/>
    <trip id="truck260" type="truck_truck" depart="1610.82" departLane="best" from="193133897#0" to="305176892"/>
    <trip id="truck261" type="truck_truck" depart="1617.01" departLane="best" departSpeed="max" from="360924351#0" to="630341822"/>
    <trip id="truck262" type="truck_truck" depart="1623.21" departLane="best" from="49874191#3" to="-193131668#2"/>
    <trip id="truck263" type="truck_truck" depart="1629.40" departLane="best" from="-343333449#4" to="-184515332#2"/>