<?xml version="1.0" encoding="UTF-8"?>

<!-- generated on 2024-10-15 20:57:14.908963 by osmWebWizard.py v1_20_0+0002-343658e7c64
<configuration>
    <net-file value="C:\Users\Lynkrd\Sumo\2024-10-15-20-57-03\osm.net.xml.gz"/>
    <output-trip-file value="C:\Users\Lynkrd\Sumo\2024-10-15-20-57-03\osm.pedestrian.trips.xml"/>
    <route-file value="C:\Users\Lynkrd\Sumo\2024-10-15-20-57-03\osm.pedestrian.rou.xml"/>
    <pedestrians value="True"/>
    <prefix value="ped"/>
    <vehicle-class value="pedestrian"/>
    <fringe-factor value="1"/>
    <max-distance value="2000.0"/>
    <insertion-density value="10.0"/>
</configuration>
-->

<routes xmlns:xsi="http://www.w3.org/2001/XMLSchema-instance" xsi:noNamespaceSchemaLocation="http://sumo.dlr.de/xsd/routes_file.xsd">
    <vType id="ped_pedestrian" vClass="pedestrian"/>
    <person id="ped0" depart="0.00" type="ped_pedestrian">
        <walk from="363058700" to="-193131831#2"/>
    </person>
    <person id="ped1" depart="6.95" type="ped_pedestrian">
        <walk from="-383966404#2" to="-378137086"/>
    </person>
    <person id="ped2" depart="13.91" type="ped_pedestrian">
        <walk from="379721661#0" to="363345713#0"/>
    </person>
    <person id="ped3" depart="20.86" type="ped_pedestrian">
        <walk from="527105638" to="-324090730"/>
    </person>
    <person id="ped4" depart="27.82" type="ped_pedestrian">
        <walk from="191712630#1" to="-193447769#0"/>
    </person>
    <person id="ped5" depart="34.77" type="ped_pedestrian">
        <walk from="-378137067" to="260136282"/>
    </person>
    <person id="ped6" depart="41.73" type="ped_pedestrian">
        <walk from="-193131831#3" to="-363345721"/>
    </person>
    <person id="ped7" depart="48.68" type="ped_pedestrian">
        <walk from="363200413" to="324090741"/>
    </person>
    <person id="ped8" depart="55.64" type="ped_pedestrian">
        <walk from="-378137071" to="360924346#1"/>
    </person>
    <person id="ped9" depart="62.59" type="ped_pedestrian">
        <walk from="407103915" to="-184515323#6"/>
    </person>
    <person id="ped10" depart="69.55" type="ped_pedestrian">
        <walk from="406874975#4" to="378137050"/>
    </person>
    <person id="ped11" depart="76.50" type="ped_pedestrian">
        <walk from="-418153296" to="-363058688"/>
    </person>
    <person id="ped12" depart="83.46" type="ped_pedestrian">
        <walk from="966300971#1" to="-418153292"/>
    </person>
    <person id="ped13" depart="90.41" type="ped_pedestrian">
        <walk from="-324090740" to="-332722351"/>
    </person>
    <person id="ped14" depart="97.37" type="ped_pedestrian">
        <walk from="418153301" to="360933446"/>
    </person>
    <person id="ped15" depart="104.32" type="ped_pedestrian">
        <walk from="324090731" to="978455014"/>
    </person>
    <person id="ped16" depart="111.28" type="ped_pedestrian">
        <walk from="-55354009#1" to="332722351"/>
    </person>
    <person id="ped17" depart="118.23" type="ped_pedestrian">
        <walk from="418153280" to="363058650"/>
    </person>
    <person id="ped18" depart="125.19" type="ped_pedestrian">
        <walk from="421325880" to="358981140#1"/>
    </person>
    <person id="ped19" depart="132.14" type="ped_pedestrian">
        <walk from="378137071" to="-194071347"/>
    </person>
    <person id="ped20" depart="139.10" type="ped_pedestrian">
        <walk from="-378137098" to="-390523320#2"/>
    </person>
    <person id="ped21" depart="146.05" type="ped_pedestrian">
        <walk from="-305135198#1" to="-378137111"/>
    </person>
    <person id="ped22" depart="153.01" type="ped_pedestrian">
        <walk from="363058696" to="-421414542"/>
    </person>
    <person id="ped23" depart="159.96" type="ped_pedestrian">
        <walk from="-421559297" to="-377839886"/>
    </person>
    <person id="ped24" depart="166.91" type="ped_pedestrian">
        <walk from="-381385346#0" to="964822352#0"/>
    </person>
    <person id="ped25" depart="173.87" type="ped_pedestrian">
        <walk from="363200411" to="362635583"/>
    </person>
    <person id="ped26" depart="180.82" type="ped_pedestrian">
        <walk from="-363200412" to="378315963"/>
    </person>
    <person id="ped27" depart="187.78" type="ped_pedestrian">
        <walk from="-363058704" to="-589663336"/>
    </person>
    <person id="ped28" depart="194.73" type="ped_pedestrian">
        <walk from="982140504#2" to="363058702"/>
    </person>
    <person id="ped29" depart="201.69" type="ped_pedestrian">
        <walk from="343333453" to="363345727"/>
    </person>
    <person id="ped30" depart="208.64" type="ped_pedestrian">
        <walk from="418153296" to="390523325#1"/>
    </person>
    <person id="ped31" depart="215.60" type="ped_pedestrian">
        <walk from="-378137099#0" to="-193447769#3"/>
    </person>
    <person id="ped32" depart="222.55" type="ped_pedestrian">
        <walk from="-406874975#1" to="-381385346#1"/>
    </person>
    <person id="ped33" depart="229.51" type="ped_pedestrian">
        <walk from="-377839888" to="964822353#4"/>
    </person>
    <person id="ped34" depart="236.46" type="ped_pedestrian">
        <walk from="421559297" to="-406874975#0"/>
    </person>
    <person id="ped35" depart="243.42" type="ped_pedestrian">
        <walk from="363200420" to="-910969916#1"/>
    </person>
    <person id="ped36" depart="250.37" type="ped_pedestrian">
        <walk from="910969916#0" to="194071345#4"/>
    </person>
    <person id="ped37" depart="257.33" type="ped_pedestrian">
        <walk from="-381385343#0" to="-378315969"/>
    </person>
    <person id="ped38" depart="264.28" type="ped_pedestrian">
        <walk from="348787801#2" to="-381385337#1"/>
    </person>
    <person id="ped39" depart="271.24" type="ped_pedestrian">
        <walk from="360923677#1" to="589663342"/>
    </person>
    <person id="ped40" depart="278.19" type="ped_pedestrian">
        <walk from="-964459832" to="-378137068"/>
    </person>
    <person id="ped41" depart="285.15" type="ped_pedestrian">
        <walk from="990169786" to="301521097#1"/>
    </person>
    <person id="ped42" depart="292.10" type="ped_pedestrian">
        <walk from="-324090738" to="-194071349"/>
    </person>
    <person id="ped43" depart="299.06" type="ped_pedestrian">
        <walk from="-358981139#0" to="363058681"/>
    </person>
    <person id="ped44" depart="306.01" type="ped_pedestrian">
        <walk from="395804675" to="191712630#1"/>
    </person>
    <person id="ped45" depart="312.97" type="ped_pedestrian">
        <walk from="-256806337#2" to="-589663349"/>
    </person>
    <person id="ped46" depart="319.92" type="ped_pedestrian">
        <walk from="984944336" to="324090723#2"/>
    </person>
    <person id="ped47" depart="326.87" type="ped_pedestrian">
        <walk from="976495193" to="421325879"/>
    </person>
    <person id="ped48" depart="333.83" type="ped_pedestrian">
        <walk from="-191712630#2" to="378137121#1"/>
    </person>
    <person id="ped49" depart="340.78" type="ped_pedestrian">
        <walk from="363345722#1" to="324090732"/>
    </person>
    <person id="ped50" depart="347.74" type="ped_pedestrian">
        <walk from="-381385346#0" to="363058704"/>
    </person>
    <person id="ped51" depart="354.69" type="ped_pedestrian">
        <walk from="-358981139#3" to="193131830#4"/>
    </person>
    <person id="ped52" depart="361.65" type="ped_pedestrian">
        <walk from="193448358" to="966300967#1"/>
    </person>
    <person id="ped53" depart="368.60" type="ped_pedestrian">
        <walk from="421414549" to="-381385340"/>
    </person>
    <person id="ped54" depart="375.56" type="ped_pedestrian">
        <walk from="260136277" to="-363200421"/>
    </person>
    <person id="ped55" depart="382.51" type="ped_pedestrian">
        <walk from="748889413" to="421414544"/>
    </person>
    <person id="ped56" depart="389.47" type="ped_pedestrian">
        <walk from="-391275414#0" to="363058700"/>
    </person>
    <person id="ped57" depart="396.42" type="ped_pedestrian">
        <walk from="362635583" to="-363058683"/>
    </person>
    <person id="ped58" depart="403.38" type="ped_pedestrian">
        <walk from="383966404#3" to="324090734"/>
    </person>
    <person id="ped59" depart="410.33" type="ped_pedestrian">
        <walk from="390523325#4" to="324090724"/>
    </person>
    <person id="ped60" depart="417.29" type="ped_pedestrian">
        <walk from="-1123481632" to="-417718965"/>
    </person>
    <person id="ped61" depart="424.24" type="ped_pedestrian">
        <walk from="-193131830#1" to="964806651#0"/>
    </person>
    <person id="ped62" depart="431.20" type="ped_pedestrian">
        <walk from="421559303" to="418153283"/>
    </person>
    <person id="ped63" depart="438.15" type="ped_pedestrian">
        <walk from="-395804677" to="-199422208#0"/>
    </person>
    <person id="ped64" depart="445.11" type="ped_pedestrian">
        <walk from="421559302" to="965245669#0"/>
    </person>
    <person id="ped65" depart="452.06" type="ped_pedestrian">
        <walk from="-324090727" to="256806337#1"/>
    </person>
    <person id="ped66" depart="459.02" type="ped_pedestrian">
        <walk from="-301521097#0" to="383966404#0"/>
    </person>
    <person id="ped67" depart="465.97" type="ped_pedestrian">
        <walk from="383966404#7" to="-360926380#5"/>
    </person>
    <person id="ped68" depart="472.93" type="ped_pedestrian">
        <walk from="199383174" to="332720971"/>
    </person>
    <person id="ped69" depart="479.88" type="ped_pedestrian">
        <walk from="-381385343#0" to="421414546"/>
    </person>
    <person id="ped70" depart="486.83" type="ped_pedestrian">
        <walk from="191712630#2" to="-377839892"/>
    </person>
    <person id="ped71" depart="493.79" type="ped_pedestrian">
        <walk from="324090734" to="378315967"/>
    </person>
    <person id="ped72" depart="500.74" type="ped_pedestrian">
        <walk from="-363345728" to="-395804682"/>
    </person>
    <person id="ped73" depart="507.70" type="ped_pedestrian">
        <walk from="982140511" to="363200413"/>
    </person>
    <person id="ped74" depart="514.65" type="ped_pedestrian">
        <walk from="193131831#1" to="304288179"/>
    </person>
    <person id="ped75" depart="521.61" type="ped_pedestrian">
        <walk from="-360924346#6" to="-378137088"/>
    </person>
    <person id="ped76" depart="528.56" type="ped_pedestrian">
        <walk from="-418153293" to="360924346#0"/>
    </person>
    <person id="ped77" depart="535.52" type="ped_pedestrian">
        <walk from="-378137099#1" to="-378137071"/>
    </person>
    <person id="ped78" depart="542.47" type="ped_pedestrian">
        <walk from="-303057432#0" to="363058687#1"/>
    </person>
    <person id="ped79" depart="549.43" type="ped_pedestrian">
        <walk from="-378137099#0" to="589663387"/>
    </person>
    <person id="ped80" depart="556.38" type="ped_pedestrian">
        <walk from="421325878" to="-301521097#2"/>
    </person>
    <person id="ped81" depart="563.34" type="ped_pedestrian">
        <walk from="-378137123" to="363345696#0"/>
    </person>
    <person id="ped82" depart="570.29" type="ped_pedestrian">
        <walk from="-378137050" to="-360933447#1"/>
    </person>
    <person id="ped83" depart="577.25" type="ped_pedestrian">
        <walk from="964822351#1" to="358980059"/>
    </person>
    <person id="ped84" depart="584.20" type="ped_pedestrian">
        <walk from="194071354" to="391275414#1"/>
    </person>
    <person id="ped85" depart="591.16" type="ped_pedestrian">
        <walk from="407103913" to="-363345692#2"/>
    </person>
    <person id="ped86" depart="598.11" type="ped_pedestrian">
        <walk from="-332722351" to="193131677"/>
    </person>
    <person id="ped87" depart="605.07" type="ped_pedestrian">
        <walk from="193131672#0" to="194071350#1"/>
    </person>
    <person id="ped88" depart="612.02" type="ped_pedestrian">
        <walk from="378315963" to="363345709"/>
    </person>
    <person id="ped89" depart="618.98" type="ped_pedestrian">
        <walk from="982140500#0" to="-343333453"/>
    </person>
    <person id="ped90" depart="625.93" type="ped_pedestrian">
        <walk from="-978481204#1" to="-418153295"/>
    </person>
    <person id="ped91" depart="632.89" type="ped_pedestrian">
        <walk from="421325880" to="-378315975"/>
    </person>
    <person id="ped92" depart="639.84" type="ped_pedestrian">
        <walk from="-363345692#2" to="193447769#1"/>
    </person>
    <person id="ped93" depart="646.80" type="ped_pedestrian">
        <walk from="-378315984" to="964733492#0"/>
    </person>
    <person id="ped94" depart="653.75" type="ped_pedestrian">
        <walk from="193447763#1" to="421325880"/>
    </person>
    <person id="ped95" depart="660.70" type="ped_pedestrian">
        <walk from="332720972" to="-194071352#0"/>
    </person>
    <person id="ped96" depart="667.66" type="ped_pedestrian">
        <walk from="990178878" to="418153288"/>
    </person>
    <person id="ped97" depart="674.61" type="ped_pedestrian">
        <walk from="966300974#9" to="964805802#2"/>
    </person>
    <person id="ped98" depart="681.57" type="ped_pedestrian">
        <walk from="418153303" to="-363058713"/>
    </person>
    <person id="ped99" depart="688.52" type="ped_pedestrian">
        <walk from="256806337#1" to="-378137050"/>
    </person>
    <person id="ped100" depart="695.48" type="ped_pedestrian">
        <walk from="-976495193" to="-199422208#1"/>
    </person>
    <person id="ped101" depart="702.43" type="ped_pedestrian">
        <walk from="-55354009#1" to="982140500#1"/>
    </person>
    <person id="ped102" depart="709.39" type="ped_pedestrian">
        <walk from="-381385343#0" to="391275414#1"/>
    </person>
    <person id="ped103" depart="716.34" type="ped_pedestrian">
        <walk from="193448359" to="191712630#2"/>
    </person>
    <person id="ped104" depart="723.30" type="ped_pedestrian">
        <walk from="966300971#1" to="982140511"/>
    </person>
    <person id="ped105" depart="730.25" type="ped_pedestrian">
        <walk from="341485110#1" to="378137120"/>
    </person>
    <person id="ped106" depart="737.21" type="ped_pedestrian">
        <walk from="-363058687#1" to="-390523337#0"/>
    </person>
    <person id="ped107" depart="744.16" type="ped_pedestrian">
        <walk from="966300974#9" to="360923675#0"/>
    </person>
    <person id="ped108" depart="751.12" type="ped_pedestrian">
        <walk from="324090738" to="381385339"/>
    </person>
    <person id="ped109" depart="758.07" type="ped_pedestrian">
        <walk from="-199383174" to="360923677#1"/>
    </person>
    <person id="ped110" depart="765.03" type="ped_pedestrian">
        <walk from="260136279" to="420979636#1"/>
    </person>
    <person id="ped111" depart="771.98" type="ped_pedestrian">
        <walk from="-363058691" to="966300971#5"/>
    </person>
    <person id="ped112" depart="778.94" type="ped_pedestrian">
        <walk from="-305135198#1" to="-363200429"/>
    </person>
    <person id="ped113" depart="785.89" type="ped_pedestrian">
        <walk from="360926380#0" to="363345712"/>
    </person>
    <person id="ped114" depart="792.85" type="ped_pedestrian">
        <walk from="-378137121#0" to="-360924346#5"/>
    </person>
    <person id="ped115" depart="799.80" type="ped_pedestrian">
        <walk from="527105636" to="-378315967"/>
    </person>
    <person id="ped116" depart="806.76" type="ped_pedestrian">
        <walk from="360926380#0" to="363058659"/>
    </person>
    <person id="ped117" depart="813.71" type="ped_pedestrian">
        <walk from="184515323#7" to="360923677#0"/>
    </person>
    <person id="ped118" depart="820.66" type="ped_pedestrian">
        <walk from="305135200#3" to="964822351#0"/>
    </person>
    <person id="ped119" depart="827.62" type="ped_pedestrian">
        <walk from="-370750718" to="378137100#1"/>
    </person>
    <person id="ped120" depart="834.57" type="ped_pedestrian">
        <walk from="-378315934" to="-910969916#1"/>
    </person>
    <person id="ped121" depart="841.53" type="ped_pedestrian">
        <walk from="363345708#0" to="-395804664"/>
    </person>
    <person id="ped122" depart="848.48" type="ped_pedestrian">
        <walk from="-406874975#1" to="381385343#1"/>
    </person>
    <person id="ped123" depart="855.44" type="ped_pedestrian">
        <walk from="-303057432#1" to="194071345#3"/>
    </person>
    <person id="ped124" depart="862.39" type="ped_pedestrian">
        <walk from="990174283" to="984944336"/>
    </person>
    <person id="ped125" depart="869.35" type="ped_pedestrian">
        <walk from="-303057433" to="-377839895"/>
    </person>
    <person id="ped126" depart="876.30" type="ped_pedestrian">
        <walk from="-381385343#0" to="964822349#2"/>
    </person>
    <person id="ped127" depart="883.26" type="ped_pedestrian">
        <walk from="421575889#0" to="421559303"/>
    </person>
    <person id="ped128" depart="890.21" type="ped_pedestrian">
        <walk from="-421559297" to="-363058693"/>
    </person>
    <person id="ped129" depart="897.17" type="ped_pedestrian">
        <walk from="418153286" to="378137068"/>
    </person>
    <person id="ped130" depart="904.12" type="ped_pedestrian">
        <walk from="363058611" to="982140503#1"/>
    </person>
    <person id="ped131" depart="911.08" type="ped_pedestrian">
        <walk from="363200419" to="-184515323#7"/>
    </person>
    <person id="ped132" depart="918.03" type="ped_pedestrian">
        <walk from="417718959" to="-391275417#1"/>
    </person>
    <person id="ped133" depart="924.99" type="ped_pedestrian">
        <walk from="363200429" to="964822353#0"/>
    </person>
    <person id="ped134" depart="931.94" type="ped_pedestrian">
        <walk from="-362635586#0" to="-360924346#0"/>
    </person>
    <person id="ped135" depart="938.90" type="ped_pedestrian">
        <walk from="-358977810#2" to="332722352"/>
    </person>
    <person id="ped136" depart="945.85" type="ped_pedestrian">
        <walk from="-381930438" to="360933447#0"/>
    </person>
    <person id="ped137" depart="952.81" type="ped_pedestrian">
        <walk from="378137116" to="-370750715"/>
    </person>
    <person id="ped138" depart="959.76" type="ped_pedestrian">
        <walk from="363058693" to="-381385341"/>
    </person>
    <person id="ped139" depart="966.72" type="ped_pedestrian">
        <walk from="256806338#1" to="589663387"/>
    </person>
    <person id="ped140" depart="973.67" type="ped_pedestrian">
        <walk from="418153300" to="-324090740"/>
    </person>
    <person id="ped141" depart="980.62" type="ped_pedestrian">
        <walk from="193131672#0" to="-383966404#4"/>
    </person>
    <person id="ped142" depart="987.58" type="ped_pedestrian">
        <walk from="-184515323#3" to="383966412#0"/>
    </person>
    <person id="ped143" depart="994.53" type="ped_pedestrian">
        <walk from="363058698" to="-381385337#0"/>
    </person>
    <person id="ped144" depart="1001.49" type="ped_pedestrian">
        <walk from="381385323" to="332720973"/>
    </person>
    <person id="ped145" depart="1008.44" type="ped_pedestrian">
        <walk from="193131674#1" to="-191712630#0"/>
    </person>
    <person id="ped146" depart="1015.40" type="ped_pedestrian">
        <walk from="-304288176#0" to="430069114"/>
    </person>
    <person id="ped147" depart="1022.35" type="ped_pedestrian">
        <walk from="589663385" to="324090741"/>
    </person>
    <person id="ped148" depart="1029.31" type="ped_pedestrian">
        <walk from="418153287" to="360923676#2"/>
    </person>
    <person id="ped149" depart="1036.26" type="ped_pedestrian">
        <walk from="-363058672" to="-360926380#3"/>
    </person>
    <person id="ped150" depart="1043.22" type="ped_pedestrian">
        <walk from="-395804678#0" to="589663349"/>
    </person>
    <person id="ped151" depart="1050.17" type="ped_pedestrian">
        <walk from="395804679" to="421325879"/>
    </person>
    <person id="ped152" depart="1057.13" type="ped_pedestrian">
        <walk from="589663349" to="-377839887"/>
    </person>
    <person id="ped153" depart="1064.08" type="ped_pedestrian">
        <walk from="-378315983" to="-348787801#1"/>
    </person>
    <person id="ped154" depart="1071.04" type="ped_pedestrian">
        <walk from="390523325#5" to="504902899"/>
    </person>
    <person id="ped155" depart="1077.99" type="ped_pedestrian">
        <walk from="-981022850#0" to="363058662"/>
    </person>
    <person id="ped156" depart="1084.95" type="ped_pedestrian">
        <walk from="-363058687#1" to="964806651#2"/>
    </person>
    <person id="ped157" depart="1091.90" type="ped_pedestrian">
        <walk from="421360737" to="980735079#0"/>
    </person>
    <person id="ped158" depart="1098.86" type="ped_pedestrian">
        <walk from="407201943" to="421575892#0"/>
    </person>
    <person id="ped159" depart="1105.81" type="ped_pedestrian">
        <walk from="-193131831#1" to="379721661#0"/>
    </person>
    <person id="ped160" depart="1112.77" type="ped_pedestrian">
        <walk from="-417719001" to="964822348#0"/>
    </person>
    <person id="ped161" depart="1119.72" type="ped_pedestrian">
        <walk from="406874975#0" to="421360736"/>
    </person>
    <person id="ped162" depart="1126.68" type="ped_pedestrian">
        <walk from="407201943" to="-381385346#0"/>
    </person>
    <person id="ped163" depart="1133.63" type="ped_pedestrian">
        <walk from="395804666" to="-358980529"/>
    </person>
    <person id="ped164" depart="1140.58" type="ped_pedestrian">
        <walk from="421414546" to="421325877"/>
    </person>
    <person id="ped165" depart="1147.54" type="ped_pedestrian">
        <walk from="-378137079" to="417718955"/>
    </person>
    <person id="ped166" depart="1154.49" type="ped_pedestrian">
        <walk from="194071345#5" to="-395804674#1"/>
    </person>
    <person id="ped167" depart="1161.45" type="ped_pedestrian">
        <walk from="395804678#0" to="-378137097"/>
    </person>
    <person id="ped168" depart="1168.40" type="ped_pedestrian">
        <walk from="-193131831#0" to="-363345706"/>
    </person>
    <person id="ped169" depart="1175.36" type="ped_pedestrian">
        <walk from="-417718982" to="421360736"/>
    </person>
    <person id="ped170" depart="1182.31" type="ped_pedestrian">
        <walk from="966300974#7" to="-383966405#0"/>
    </person>
    <person id="ped171" depart="1189.27" type="ped_pedestrian">
        <walk from="363058712#0" to="-965260917"/>
    </person>
    <person id="ped172" depart="1196.22" type="ped_pedestrian">
        <walk from="982132432" to="324090731"/>
    </person>
    <person id="ped173" depart="1203.18" type="ped_pedestrian">
        <walk from="964822353#0" to="-360924346#0"/>
    </person>
    <person id="ped174" depart="1210.13" type="ped_pedestrian">
        <walk from="966300975#1" to="-363200421"/>
    </person>
    <person id="ped175" depart="1217.09" type="ped_pedestrian">
        <walk from="966300974#1" to="-381385343#0"/>
    </person>
    <person id="ped176" depart="1224.04" type="ped_pedestrian">
        <walk from="-358980529" to="193131830#4"/>
    </person>
    <person id="ped177" depart="1231.00" type="ped_pedestrian">
        <walk from="378315959" to="-406313403#1"/>
    </person>
    <person id="ped178" depart="1237.95" type="ped_pedestrian">
        <walk from="361474363#0" to="303057432#1"/>
    </person>
    <person id="ped179" depart="1244.91" type="ped_pedestrian">
        <walk from="-589663386" to="358981140#0"/>
    </person>
    <person id="ped180" depart="1251.86" type="ped_pedestrian">
        <walk from="-381385322#0" to="378137088"/>
    </person>
    <person id="ped181" depart="1258.82" type="ped_pedestrian">
        <walk from="-184515323#0" to="964805802#0"/>
    </person>
    <person id="ped182" depart="1265.77" type="ped_pedestrian">
        <walk from="324090733" to="378137121#0"/>
    </person>
    <person id="ped183" depart="1272.73" type="ped_pedestrian">
        <walk from="381385324" to="363345706"/>
    </person>
    <person id="ped184" depart="1279.68" type="ped_pedestrian">
        <walk from="-421414542" to="-301521097#2"/>
    </person>
    <person id="ped185" depart="1286.64" type="ped_pedestrian">
        <walk from="363345691#0" to="-417718989"/>
    </person>
    <person id="ped186" depart="1293.59" type="ped_pedestrian">
        <walk from="-406313403#1" to="418153302"/>
    </person>
    <person id="ped187" depart="1300.54" type="ped_pedestrian">
        <walk from="378137121#0" to="-395804666"/>
    </person>
    <person id="ped188" depart="1307.50" type="ped_pedestrian">
        <walk from="-395804679" to="-984944336"/>
    </person>
    <person id="ped189" depart="1314.45" type="ped_pedestrian">
        <walk from="-978481204#1" to="-390523331"/>
    </person>
    <person id="ped190" depart="1321.41" type="ped_pedestrian">
        <walk from="-360926380#3" to="184515323#8"/>
    </person>
    <person id="ped191" depart="1328.36" type="ped_pedestrian">
        <walk from="964822353#1" to="363345713#1"/>
    </person>
    <person id="ped192" depart="1335.32" type="ped_pedestrian">
        <walk from="589663375" to="363058621"/>
    </person>
    <person id="ped193" depart="1342.27" type="ped_pedestrian">
        <walk from="-395804666" to="329288365#1"/>
    </person>
    <person id="ped194" depart="1349.23" type="ped_pedestrian">
        <walk from="-1123481632" to="-383966413#1"/>
    </person>
    <person id="ped195" depart="1356.18" type="ped_pedestrian">
        <walk from="193131674#4" to="360923675#2"/>
    </person>
    <person id="ped196" depart="1363.14" type="ped_pedestrian">
        <walk from="363200420" to="194071348"/>
    </person>
    <person id="ped197" depart="1370.09" type="ped_pedestrian">
        <walk from="193447763#0" to="-378137050"/>
    </person>
    <person id="ped198" depart="1377.05" type="ped_pedestrian">
        <walk from="194071355" to="589663359"/>
    </person>
    <person id="ped199" depart="1384.00" type="ped_pedestrian">
        <walk from="395804679" to="-363200410"/>
    </person>
    <person id="ped200" depart="1390.96" type="ped_pedestrian">
        <walk from="-324090725" to="304288176#1"/>
    </person>
    <person id="ped201" depart="1397.91" type="ped_pedestrian">
        <walk from="363058689" to="-418153281"/>
    </person>
    <person id="ped202" depart="1404.87" type="ped_pedestrian">
        <walk from="417718965" to="381385343#1"/>
    </person>
    <person id="ped203" depart="1411.82" type="ped_pedestrian">
        <walk from="363345708#1" to="-378137088"/>
    </person>
    <person id="ped204" depart="1418.78" type="ped_pedestrian">
        <walk from="-363345721" to="-193131831#1"/>
    </person>
    <person id="ped205" depart="1425.73" type="ped_pedestrian">
        <walk from="-378315963" to="199383174"/>
    </person>
    <person id="ped206" depart="1432.69" type="ped_pedestrian">
        <walk from="420757596" to="-303057433"/>
    </person>
    <person id="ped207" depart="1439.64" type="ped_pedestrian">
        <walk from="184515323#1" to="363058687#0"/>
    </person>
    <person id="ped208" depart="1446.60" type="ped_pedestrian">
        <walk from="-363345709" to="377839892"/>
    </person>
    <person id="ped209" depart="1453.55" type="ped_pedestrian">
        <walk from="260136268#0" to="-378315959"/>
    </person>
    <person id="ped210" depart="1460.50" type="ped_pedestrian">
        <walk from="363200421" to="-184515323#5"/>
    </person>
    <person id="ped211" depart="1467.46" type="ped_pedestrian">
        <walk from="381385343#0" to="383966410"/>
    </person>
    <person id="ped212" depart="1474.41" type="ped_pedestrian">
        <walk from="-358977810#2" to="193131672#1"/>
    </person>
    <person id="ped213" depart="1481.37" type="ped_pedestrian">
        <walk from="-363200418" to="966300971#2"/>
    </person>
    <person id="ped214" depart="1488.32" type="ped_pedestrian">
        <walk from="304288179" to="-194071351"/>
    </person>
    <person id="ped215" depart="1495.28" type="ped_pedestrian">
        <walk from="-378315983" to="418153302"/>
    </person>
    <person id="ped216" depart="1502.23" type="ped_pedestrian">
        <walk from="194071345#1" to="406338918"/>
    </person>
    <person id="ped217" depart="1509.19" type="ped_pedestrian">
        <walk from="363345692#2" to="982140504#0"/>
    </person>
    <person id="ped218" depart="1516.14" type="ped_pedestrian">
        <walk from="360926380#1" to="966300965#0"/>
    </person>
    <person id="ped219" depart="1523.10" type="ped_pedestrian">
        <walk from="527105637" to="363058612"/>
    </person>
    <person id="ped220" depart="1530.05" type="ped_pedestrian">
        <walk from="378137121#0" to="260136281"/>
    </person>
    <person id="ped221" depart="1537.01" type="ped_pedestrian">
        <walk from="418153281" to="329288365#1"/>
    </person>
    <person id="ped222" depart="1543.96" type="ped_pedestrian">
        <walk from="589663339" to="381385327"/>
    </person>
    <person id="ped223" depart="1550.92" type="ped_pedestrian">