<?xml version="1.0" encoding="UTF-8"?>

<!-- generated on 2024-10-15 20:57:14.669747 by osmWebWizard.py v1_20_0+0002-343658e7c64
<configuration>
    <net-file value="C:\Users\Lynkrd\Sumo\2024-10-15-20-57-03\osm.net.xml.gz"/>
    <output-trip-file value="C:\Users\Lynkrd\Sumo\2024-10-15-20-57-03\osm.passenger.trips.xml"/>
    <route-file value="C:\Users\Lynkrd\Sumo\2024-10-15-20-57-03\osm.passenger.rou.xml"/>
    <prefix value="veh"/>
    <trip-attributes value="departLane=&quot;best&quot;"/>
    <fringe-start-attributes value="departSpeed=&quot;max&quot;"/>
    <vehicle-class value="passenger"/>
    <lanes value="True"/>
    <fringe-factor value="5"/>
    <allow-fringe.min-length value="1000.0"/>
    <via-edge-types value="highway.motorway,highway.motorway_link,highway.trunk_link,highway.primary_link,highway.secondary_link,highway.tertiary_link"/>
    <min-distance value="300.0"/>
    <min-distance.fringe value="10.0"/>
    <remove-loops value="True"/>
    <validate value="True"/>
    <insertion-density value="12.0"/>
</configuration>
-->

<!-- generated on 2024-10-15 20:57:14 by Eclipse SUMO duarouter Version 1.20.0
<configuration xmlns:xsi="http://www.w3.org/2001/XMLSchema-instance" xsi:noNamespaceSchemaLocation="http://sumo.dlr.de/xsd/duarouterConfiguration.xsd">

    <input>
        <net-file value="C:\Users\Lynkrd\Sumo\2024-10-15-20-57-03\osm.net.xml.gz"/>
        <route-files value="C:\Users\Lynkrd\Sumo\2024-10-15-20-57-03\osm.passenger.trips.xml"/>
    </input>

    <output>
        <output-file value="C:\Users\Lynkrd\Sumo\2024-10-15-20-57-03\osm.passenger.trips.xml.tmp"/>
        <alternatives-output value="NUL"/>
        <write-trips value="true"/>
    </output>

    <processing>
        <remove-loops value="true"/>
    </processing>

    <time>
        <begin value="0.0"/>
        <end value="3600.0"/>
    </time>

    <report>
        <no-warnings value="true"/>
        <ignore-errors value="true"/>
        <no-step-log value="true"/>
    </report>

</configuration>
-->

<routes xmlns:xsi="http://www.w3.org/2001/XMLSchema-instance" xsi:noNamespaceSchemaLocation="http://sumo.dlr.de/xsd/routes_file.xsd">
    <vType id="veh_passenger" vClass="passenger"/>
    <trip id="veh0" type="veh_passenger" depart="0.00" departLane="best" from="369024791#1" to="-191712631"/>
    <trip id="veh1" type="veh_passenger" depart="4.13" departLane="best" from="193131246#2" to="-184515332#1"/>
    <trip id="veh2" type="veh_passenger" depart="8.26" departLane="best" from="49874181#3" to="390564832#1"/>
    <trip id="veh3" type="veh_passenger" depart="12.39" departLane="best" departSpeed="max" from="301511503" to="-191712633"/>
    <trip id="veh4" type="veh_passenger" depart="16.52" departLane="best" departSpeed="max" from="184515332#0" to="-344330273#1"/>
    <trip id="veh5" type="veh_passenger" depart="20.65" departLane="best" from="191712634#3" to="-982221190#3"/>
    <trip id="veh6" type="veh_passenger" depart="24.78" departLane="best" from="373701312#3" to="360923887#14"/>
    <trip id="veh7" type="veh_passenger" depart="28.91" departLane="best" from="184515332#2" to="360926608#0"/>
    <trip id="veh8" type="veh_passenger" depart="33.04" departLane="best" from="528730471" to="-184515332#2"/>
    <trip id="veh9" type="veh_passenger" depart="37.17" departLane="best" from="525453702#0" to="406338918"/>
    <trip id="veh10" type="veh_passenger" depart="41.30" departLane="best" from="193448358" to="-361477241#3"/>
    <trip id="veh11" type="veh_passenger" depart="45.43" departLane="best" from="980959028#0" to="193448359"/>
    <trip id="veh12" type="veh_passenger" depart="49.56" departLane="best" from="-239625514#3" to="199366530"/>
    <trip id="veh13" type="veh_passenger" depart="53.69" departLane="best" from="539264863#3" to="-384717999"/>
    <trip id="veh14" type="veh_passenger" depart="57.82" departLane="best" from="525453702#2" to="49793793#3"/>
    <trip id="veh15" type="veh_passenger" depart="61.95" departLane="best" from="360923887#0" to="982140508#0"/>
    <trip id="veh16" type="veh_passenger" depart="66.08" departLane="best" from="910259244#0" to="360923887#5"/>
    <trip id="veh17" type="veh_passenger" depart="70.22" departLane="best" from="539264855" to="368091899#0"/>
    <trip id="veh18" type="veh_passenger" depart="74.35" departLane="best" from="611902762#1" to="360926380#1"/>
    <trip id="veh19" type="veh_passenger" depart="78.48" departLane="best" from="457955241" to="-193131249#0"/>
    <trip id="veh20" type="veh_passenger" depart="82.61" departLane="best" departSpeed="max" from="184515850#0" to="193131673"/>
    <trip id="veh23" type="veh_passenger" depart="95.00" departLane="best" from="368559564#2" to="199422207#0"/>
    <trip id="veh24" type="veh_passenger" depart="99.13" departLane="best" from="199422207#0" to="-361474366#0"/>
    <trip id="veh26" type="veh_passenger" depart="107.39" departLane="best" from="373701311#0" to="361476384#3"/>
    <trip id="veh27" type="veh_passenger" depart="111.52" departLane="best" from="525453702#2" to="49793793#3"/>
    <trip id="veh28" type="veh_passenger" depart="115.65" departLane="best" departSpeed="max" from="-390526209" to="239625514#3"/>
    <trip id="veh29" type="veh_passenger" depart="119.78" departLane="best" departSpeed="max" from="989405402#0" to="373701300#5"/>
    <trip id="veh30" type="veh_passenger" depart="123.91" departLane="best" from="360924346#0" to="391275414#1"/>
    <trip id="veh31" type="veh_passenger" depart="128.04" departLane="best" from="539264860#1" to="226668200"/>
    <trip id="veh32" type="veh_passenger" depart="132.17" departLane="best" departSpeed="max" from="184515850#0" to="-191712634#0"/>
    <trip id="veh33" type="veh_passenger" depart="136.30" departLane="best" from="-193131678#2" to="-191712639#7"/>
    <trip id="veh34" type="veh_passenger" depart="140.43" departLane="best" from="184515323#6" to="978471464"/>
    <trip id="veh35" type="veh_passenger" depart="144.56" departLane="best" departSpeed="max" from="659429371#0" to="193131830#3"/>
    <trip id="veh37" type="veh_passenger" depart="152.82" departLane="best" from="938426329#0" to="330357696#1"/>
    <trip id="veh38" type="veh_passenger" depart="156.95" departLane="best" departSpeed="max" from="191712635#0" to="191706896#0"/>
    <trip id="veh39" type="veh_passenger" depart="161.08" departLane="best" from="360924346#2" to="191712637#0"/>
    <trip id="veh40" type="veh_passenger" depart="165.21" departLane="best" from="360926380#6" to="869909234#1"/>
    <trip id="veh41" type="veh_passenger" depart="169.34" departLane="best" from="259426348#2" to="184515323#7"/>
    <trip id="veh42" type="veh_passenger" depart="173.47" departLane="best" from="990178878" to="358977810#1"/>
    <trip id="veh43" type="veh_passenger" depart="177.60" departLane="best" from="-239625514#0" to="-193131667#1"/>
    <trip id="veh44" type="veh_passenger" depart="181.73" departLane="best" departSpeed="max" from="-301511505" to="368559006#0"/>
    <trip id="veh45" type="veh_passenger" depart="185.86" departLane="best" from="504902891" to="301511502"/>
    <trip id="veh46" type="veh_passenger" depart="189.99" departLane="best" departSpeed="max" from="-193448359" to="239625515"/>
    <trip id="veh47" type="veh_passenger" depart="194.12" departLane="best" from="990174283" to="358981140#1"/>
    <trip id="veh48" type="veh_passenger" depart="198.25" departLane="best" from="982140508#1" to="539662254#1"/>
    <trip id="veh50" type="veh_passenger" depart="206.52" departLane="best" from="391275416#1" to="-360922571#1"/>
    <trip id="veh51" type="veh_passenger" depart="210.65" departLane="best" departSpeed="max" from="191712635#0" to="-373701312#0"/>
    <trip id="veh52" type="veh_passenger" depart="214.78" departLane="best" departSpeed="max" from="-301511505" to="301521094#0"/>
    <trip id="veh53" type="veh_passenger" depart="218.91" departLane="best" from="330357696#0" to="361257111#0"/>
    <trip id="veh54" type="veh_passenger" depart="223.04" departLane="best" departSpeed="max" from="659429371#0" to="191712639#0"/>
    <trip id="veh55" type="veh_passenger" depart="227.17" departLane="best" from="344330273#1" to="539340430#0"/>
    <trip id="veh56" type="veh_passenger" depart="231.30" departLane="best" from="912237642#2" to="55354008"/>
    <trip id="veh57" type="veh_passenger" depart="235.43" departLane="best" from="193131673" to="373701300#4"/>
    <trip id="veh58" type="veh_passenger" depart="239.56" departLane="best" from="504322133#4" to="358981140#2"/>
    <trip id="veh59" type="veh_passenger" depart="243.69" departLane="best" from="184515324#0" to="193131831#4"/>
    <trip id="veh60" type="veh_passenger" depart="247.82" departLane="best" from="-191712630#0" to="978436287"/>
    <trip id="veh61" type="veh_passenger" depart="251.95" departLane="best" from="812670576" to="539264857#1"/>
    <trip id="veh62" type="veh_passenger" depart="256.08" departLane="best" from="193131674#4" to="-193131672#0"/>
    <trip id="veh63" type="veh_passenger" depart="260.21" departLane="best" from="659429371#1" to="978481204#0"/>
    <trip id="veh64" type="veh_passenger" depart="264.34" departLane="best" from="-200093440#0" to="539264851#1"/>
    <trip id="veh65" type="veh_passenger" depart="268.47" departLane="best" from="-194109207#1" to="49874191#1"/>
    <trip id="veh66" type="veh_passenger" depart="272.60" departLane="best" from="49874191#2" to="-343333449#9"/>
    <trip id="veh67" type="veh_passenger" depart="276.73" departLane="best" from="344153327#1" to="360923887#4"/>
    <trip id="veh68" type="veh_passenger" depart="280.86" departLane="best" departSpeed="max" from="191712635#0" to="55354008"/>
    <trip id="veh69" type="veh_passenger" depart="284.99" departLane="best" departSpeed="max" from="301511503" to="184515323#1"/>
    <trip id="veh70" type="veh_passenger" depart="289.12" departLane="best" from="360923887#10" to="49793793#4"/>
    <trip id="veh71" type="veh_passenger" depart="293.25" departLane="best" from="1130767897" to="193131830#0"/>
    <trip id="veh72" type="veh_passenger" depart="297.38" departLane="best" from="990169787" to="384717985#1"/>
    <trip id="veh73" type="veh_passenger" depart="301.51" departLane="best" from="305135147" to="358981130#0"/>
    <trip id="veh74" type="veh_passenger" depart="305.64" departLane="best" from="-343333449#8" to="-184515332#3"/>
    <trip id="veh75" type="veh_passenger" depart="309.77" departLane="best" from="193448356#2" to="360926608#0"/>
    <trip id="veh76" type="veh_passenger" depart="313.90" departLane="best" from="-194338160#0" to="368559564#2"/>
    <trip id="veh77" type="veh_passenger" depart="318.03" departLane="best" departSpeed="max" from="184515850#0" to="193131830#0"/>
    <trip id="veh79" type="veh_passenger" depart="326.29" departLane="best" from="191706895#1" to="390526209"/>
    <trip id="veh80" type="veh_passenger" depart="330.42" departLane="best" from="184515324#0" to="358981137"/>
    <trip id="veh81" type="veh_passenger" depart="334.55" departLane="best" from="978481204#0" to="360924349#0"/>
    <trip id="veh82" type="veh_passenger" depart="338.68" departLane="best" from="-343333449#9" to="504338188#0"/>
    <trip id="veh83" type="veh_passenger" depart="342.82" departLane="best" from="525453702#2" to="-835396535#0"/>
    <trip id="veh84" type="veh_passenger" depart="346.95" departLane="best" from="-239630753#1" to="301521093"/>
    <trip id="veh85" type="veh_passenger" depart="351.08" departLane="best" departSpeed="max" from="301511503" to="330357699#1"/>
    <trip id="veh87" type="veh_passenger" depart="359.34" departLane="best" departSpeed="max" from="989405402#0" to="-199422209#0"/>
    <trip id="veh88" type="veh_passenger" depart="363.47" departLane="best" from="259692060#1" to="193448359"/>
    <trip id="veh89" type="veh_passenger" depart="367.60" departLane="best" from="-982221190#10" to="305135147"/>
    <trip id="veh91" type="veh_passenger" depart="375.86" departLane="best" from="-191712630#2" to="406313403#0"/>
    <trip id="veh92" type="veh_passenger" depart="379.99" departLane="best" departSpeed="max" from="305135157#0" to="540758086"/>
    <trip id="veh93" type="veh_passenger" depart="384.12" departLane="best" from="360923887#5" to="-193131668#2"/>
    <trip id="veh95" type="veh_passenger" depart="392.38" departLane="best" from="981022850#1" to="955172864#0"/>
    <trip id="veh96" type="veh_passenger" depart="396.51" departLane="best" from="539264863#4" to="-384717992#0"/>
    <trip id="veh97" type="veh_passenger" depart="400.64" departLane="best" from="344153330#1" to="-305176895#1"/>
    <trip id="veh98" type="veh_passenger" depart="404.77" departLane="best" from="259692060#0" to="-193131672#0"/>
    <trip id="veh99" type="veh_passenger" depart="408.90" departLane="best" from="910259244#0" to="989387678#0"/>
    <trip id="veh101" type="veh_passenger" depart="417.16" departLane="best" from="330357696#1" to="301511504"/>
    <trip id="veh102" type="veh_passenger" depart="421.29" departLane="best" from="980959028#0" to="990174281"/>
    <trip id="veh104" type="veh_passenger" depart="429.55" departLane="best" from="384717992#2" to="193131674#3"/>
    <trip id="veh105" type="veh_passenger" depart="433.68" departLane="best" from="981022850#1" to="360926380#10"/>
    <trip id="veh106" type="veh_passenger" depart="437.81" departLane="best" from="360923887#13" to="49874187#2"/>
    <trip id="veh107" type="veh_passenger" depart="441.94" departLane="best" from="-193447772" to="360926380#3"/>
    <trip id="veh108" type="veh_passenger" depart="446.07" departLane="best" from="358977810#0" to="539340430#2"/>
    <trip id="veh109" type="veh_passenger" depart="450.20" departLane="best" from="-390523329" to="368091905#1"/>
    <trip id="veh111" type="veh_passenger" depart="458.46" departLane="best" from="361257111#2" to="390564832#1"/>
    <trip id="veh112" type="veh_passenger" depart="462.59" departLane="best" from="-191704963#2" to="305176892"/>
    <trip id="veh113" type="veh_passenger" depart="466.72" departLane="best" from="361257111#1" to="368091899#1"/>
    <trip id="veh114" type="veh_passenger" depart="470.85" departLane="best" from="301511502" to="360926380#3"/>
    <trip id="veh118" type="veh_passenger" depart="487.38" departLane="best" from="-390526208" to="-193131675#0"/>
    <trip id="veh119" type="veh_passenger" depart="491.51" departLane="best" from="-193131678#3" to="49874189#1"/>
    <trip id="veh120" type="veh_passenger" depart="495.64" departLane="best" from="-197203393#0" to="330357696#0"/>
    <trip id="veh121" type="veh_passenger" depart="499.77" departLane="best" from="-197203393#1" to="184515323#2"/>
    <trip id="veh122" type="veh_passenger" depart="503.90" departLane="best" departSpeed="max" from="191712635#0" to="368091947"/>
    <trip id="veh123" type="veh_passenger" depart="508.03" departLane="best" from="812683580#1" to="589683551#1"/>
    <trip id="veh124" type="veh_passenger" depart="512.16" departLane="best" from="199419804#4" to="-373701308"/>
    <trip id="veh125" type="veh_passenger" depart="516.29" departLane="best" from="539264857#2" to="406874975#2"/>
    <trip id="veh127" type="veh_passenger" depart="524.55" departLane="best" from="384717985#1" to="-184515612"/>
    <trip id="veh128" type="veh_passenger" depart="528.68" departLane="best" from="361474367#2" to="-301511503"/>
    <trip id="veh129" type="veh_passenger" depart="532.81" departLane="best" departSpeed="max" from="-301511504" to="360923887#6"/>
    <trip id="veh130" type="veh_passenger" depart="536.94" departLane="best" from="-191712639#6" to="-361474367#1"/>
    <trip id="veh131" type="veh_passenger" depart="541.07" departLane="best" departSpeed="max" from="49732812#0" to="-990591472#0"/>
    <trip id="veh132" type="veh_passenger" depart="545.20" departLane="best" from="368559564#1" to="191712639#1"/>
    <trip id="veh133" type="veh_passenger" depart="549.33" departLane="best" from="344153345#1" to="193131830#0"/>
    <trip id="veh134" type="veh_passenger" depart="553.46" departLane="best" from="539264863#2" to="-197203411"/>
    <trip id="veh136" type="veh_passenger" depart="561.72" departLane="best" from="-184515332#2" to="49874191#7"/>
    <trip id="veh137" type="veh_passenger" depart="565.85" departLane="best" from="368559565#1" to="-191712635#1"/>
    <trip id="veh138" type="veh_passenger" depart="569.98" departLane="best" from="49874186#1" to="360923887#5"/>
    <trip id="veh139" type="veh_passenger" depart="574.11" departLane="best" from="301521094#2" to="-184515850#0"/>
    <trip id="veh140" type="veh_passenger" depart="578.24" departLane="best" from="-197203393#5" to="630341822"/>
    <trip id="veh141" type="veh_passenger" depart="582.37" departLane="best" from="910969916#0" to="360923887#14"/>
    <trip id="veh142" type="veh_passenger" depart="586.50" departLane="best" from="539264858#0" to="360926380#2"/>
    <trip id="veh143" type="veh_passenger" depart="590.63" departLane="best" from="-373701312#7" to="-343333449#7"/>
    <trip id="veh144" type="veh_passenger" depart="594.76" departLane="best" from="193131675#0" to="869909234#2"/>
    <trip id="veh145" type="veh_passenger" depart="598.89" departLane="best" departSpeed="max" from="504902893" to="539662254#1"/>
    <trip id="veh146" type="veh_passenger" depart="603.02" departLane="best" from="910969913#0" to="184515323#0"/>
    <trip id="veh147" type="veh_passenger" depart="607.15" departLane="best" from="-191712630#2" to="200093441"/>
    <trip id="veh148" type="veh_passenger" depart="611.28" departLane="best" from="504322133#6" to="630341822"/>
    <trip id="veh149" type="veh_passenger" depart="615.41" departLane="best" from="260136266#3" to="368091899#2"/>
    <trip id="veh150" type="veh_passenger" depart="619.55" departLane="best" from="384717992#2" to="978436287"/>
    <trip id="veh151" type="veh_passenger" depart="623.68" departLane="best" from="528730477#1" to="589683551#1"/>
    <trip id="veh152" type="veh_passenger" depart="627.81" departLane="best" from="-191712632#3" to="49874181#4"/>
    <trip id="veh153" type="veh_passenger" depart="631.94" departLane="best" from="193133897#0" to="978436287"/>
    <trip id="veh154" type="veh_passenger" depart="636.07" departLane="best" from="507846387#1" to="55354008"/>
    <trip id="veh155" type="veh_passenger" depart="640.20" departLane="best" from="504638029" to="239625514#3"/>
    <trip id="veh156" type="veh_passenger" depart="644.33" departLane="best" departSpeed="max" from="633932891" to="539662254#0"/>
    <trip id="veh157" type="veh_passenger" depart="648.46" departLane="best" from="184515613#1" to="539264849#0"/>
    <trip id="veh158" type="veh_passenger" depart="652.59" departLane="best" from="49874186#0" to="193131677"/>
    <trip id="veh159" type="veh_passenger" depart="656.72" departLane="best" departSpeed="max" from="504902893" to="-184515614#1"/>
    <trip id="veh160" type="veh_passenger" depart="660.85" departLane="best" from="-191712632#1" to="955172864#3"/>
    <trip id="veh161" type="veh_passenger" depart="664.98" departLane="best" from="193131831#3" to="55354008"/>
    <trip id="veh162" type="veh_passenger" depart="669.11" departLane="best" from="981022849" to="193131249#1"/>
    <trip id="veh164" type="veh_passenger" depart="677.37" departLane="best" from="989377912#0" to="358981142#4"/>
    <trip id="veh166" type="veh_passenger" depart="685.63" departLane="best" from="982140508#0" to="539340430#0"/>
    <trip id="veh167" type="veh_passenger" depart="689.76" departLane="best" from="980996797" to="191712639#4"/>
    <trip id="veh168" type="veh_passenger" depart="693.89" departLane="best" departSpeed="max" from="-301511504" to="301521094#0"/>
    <trip id="veh170" type="veh_passenger" depart="702.15" departLane="best" from="361476384#1" to="358980056#1"/>
    <trip id="veh171" type="veh_passenger" depart="706.28" departLane="best" from="239630753#0" to="360926380#0"/>
    <trip id="veh172" type="veh_passenger" depart="710.41" departLane="best" from="-191712632#1" to="408999833#1"/>
    <trip id="veh173" type="veh_passenger" depart="714.54" departLane="best" from="184515330#0" to="938428977"/>
    <trip id="veh175" type="veh_passenger" depart="722.80" departLane="best" from="49874186#1" to="390526209"/>
    <trip id="veh176" type="veh_passenger" depart="726.93" departLane="best" from="199419804#0" to="-193131900#0"/>
    <trip id="veh177" type="veh_passenger" depart="731.06" departLane="best" from="390523325#5" to="193447771#1"/>
    <trip id="veh178" type="veh_passenger" depart="735.19" departLane="best" departSpeed="max" from="193131678#0" to="539264863#3"/>
    <trip id="veh179" type="veh_passenger" depart="739.32" departLane="best" departSpeed="max" from="49732812#0" to="193131675#1"/>
    <trip id="veh180" type="veh_passenger" depart="743.45" departLane="best" from="193131675#2" to="260136266#4"/>
    <trip id="veh181" type="veh_passenger" depart="747.58" departLane="best" from="-360923889#1" to="301511502"/>
    <trip id="veh182" type="veh_passenger" depart="751.71" departLane="best" from="978519137#0" to="390564832#1"/>
    <trip id="veh183" type="veh_passenger" depart="755.85" departLane="best" from="910969916#0" to="363199285"/>
    <trip id="veh184" type="veh_passenger" depart="759.98" departLane="best" from="193131674#1" to="360923887#2"/>
    <trip id="veh185" type="veh_passenger" depart="764.11" departLane="best" from="184515324#0" to="-193131670"/>
    <trip id="veh186" type="veh_passenger" depart="768.24" departLane="best" from="301521094#3" to="360926380#11"/>
    <trip id="veh187" type="veh_passenger" depart="772.37" departLane="best" from="344153327#0" to="869909234#3"/>
    <trip id="veh188" type="veh_passenger" depart="776.50" departLane="best" departSpeed="max" from="504902893" to="390523327"/>
    <trip id="veh189" type="veh_passenger" depart="780.63" departLane="best" from="199422207#0" to="358980526#2"/>
    <trip id="veh190" type="veh_passenger" depart="784.76" departLane="best" from="910259244#0" to="193448358"/>
    <trip id="veh191" type="veh_passenger" depart="788.89" departLane="best" from="539264849#1" to="49874189#0"/>
    <trip id="veh192" type="veh_passenger" depart="793.02" departLane="best" from="1076656333#0" to="-191712631"/>
    <trip id="veh193" type="veh_passenger" depart="797.15" departLane="best" from="539340429#0" to="-193447772"/>
    <trip id="veh194" type="veh_passenger" depart="801.28" departLane="best" from="301511496#2" to="368559564#1"/>
    <trip id="veh195" type="veh_passenger" depart="805.41" departLane="best" from="-982221190#7" to="406313403#1"/>
    <trip id="veh196" type="veh_passenger" depart="809.54" departLane="best" from="384717992#3" to="-184515332#1"/>
    <trip id="veh197" type="veh_passenger" depart="813.67" departLane="best" departSpeed="max" from="-589683551#1" to="980937242"/>
    <trip id="veh198" type="veh_passenger" depart="817.80" departLane="best" departSpeed="max" from="358981131" to="-193131668#1"/>
    <trip id="veh199" type="veh_passenger" depart="821.93" departLane="best" from="191712630#1" to="539264863#4"/>
    <trip id="veh201" type="veh_passenger" depart="830.19" departLane="best" from="361257111#2" to="978487723#0"/>
    <trip id="veh202" type="veh_passenger" depart="834.32" departLane="best" departSpeed="max" from="49732812#0" to="344330273#0"/>
    <trip id="veh203" type="veh_passenger" depart="838.45" departLane="best" from="539264856#0" to="360923887#2"/>
    <trip id="veh204" type="veh_passenger" depart="842.58" departLane="best" from="910969912#0" to="49874186#3"/>
    <trip id="veh205" type="veh_passenger" depart="846.71" departLane="best" from="344153327#1" to="191712632#3"/>
    <trip id="veh206" type="veh_passenger" depart="850.84" departLane="best" from="-191712630#0" to="373701300#2"/>
    <trip id="veh207" type="veh_passenger" depart="854.97" departLane="best" from="49874189#7" to="-358981137"/>
    <trip id="veh209" type="veh_passenger" depart="863.23" departLane="best" from="-197203393#9" to="193131669#1"/>
    <trip id="veh210" type="veh_passenger" depart="867.36" departLane="best" from="191712639#5" to="193131830#6"/>
    <trip id="veh211" type="veh_passenger" depart="871.49" departLane="best" from="184515851" to="406313403#0"/>
    <trip id="veh212" type="veh_passenger" depart="875.62" departLane="best" from="465536774" to="193131677"/>
    <trip id="veh213" type="veh_passenger" depart="879.75" departLane="best" from="260136266#4" to="360923887#12"/>
    <trip id="veh214" type="veh_passenger" depart="883.88" departLane="best" from="301511502" to="910259244#0"/>
    <trip id="veh215" type="veh_passenger" depart="888.01" departLane="best" from="360926380#6" to="406313403#1"/>
    <trip id="veh216" type="veh_passenger" depart="892.15" departLane="best" from="391275417#0" to="49874189#6"/>
    <trip id="veh217" type="veh_passenger" depart="896.28" departLane="best" from="504322133#3" to="-184515332#1"/>
    <trip id="veh218" type="veh_passenger" depart="900.41" departLane="best" from="197203393#7" to="49874189#2"/>
    <trip id="veh219" type="veh_passenger" depart="904.54" departLane="best" from="539540913#0" to="361257111#0"/>
    <trip id="veh220" type="veh_passenger" depart="908.67" departLane="best" from="301511500#0" to="49874187#1"/>
    <trip id="veh221" type="veh_passenger" depart="912.80" departLane="best" from="360923887#2" to="361474364"/>
    <trip id="veh222" type="veh_passenger" depart="916.93" departLane="best" from="184515332#3" to="184515323#8"/>
    <trip id="veh223" type="veh_passenger" depart="921.06" departLane="best" from="301521097#1" to="-191712633"/>
    <trip id="veh224" type="veh_passenger" depart="925.19" departLane="best" from="-193447772" to="390564837#0"/>
    <trip id="veh225" type="veh_passenger" depart="929.32" departLane="best" from="260136266#1" to="379721661#1"/>
    <trip id="veh226" type="veh_passenger" depart="933.45" departLane="best" from="343333449#0" to="343333449#8"/>
    <trip id="veh227" type="veh_passenger" depart="937.58" departLane="best" from="368091899#0" to="-191712632#2"/>
    <trip id="veh228" type="veh_passenger" depart="941.71" departLane="best" from="259426346#0" to="360924346#3"/>
    <trip id="veh229" type="veh_passenger" depart="945.84" departLane="best" from="191712635#1" to="-373701312#3"/>
    <trip id="veh230" type="veh_passenger" depart="949.97" departLane="best" from="-361476384#1" to="330357696#3"/>
    <trip id="veh231" type="veh_passenger" depart="954.10" departLane="best" from="184515323#7" to="193133897#0"/>
    <trip id="veh232" type="veh_passenger" depart="958.23" departLane="best" from="49874191#1" to="239625514#2"/>
    <trip id="veh233" type="veh_passenger" depart="962.36" departLane="best" from="49874189#1" to="539264857#1"/>
    <trip id="veh234" type="veh_passenger" depart="966.49" departLane="best" departSpeed="max" from="191712631" to="-197203393#0"/>
    <trip id="veh235" type="veh_passenger" depart="970.62" departLane="best" from="-191712630#0" to="360923887#1"/>
    <trip id="veh236" type="veh_passenger" depart="974.75" departLane="best" from="373701312#5" to="504333065#2"/>
    <trip id="veh237" type="veh_passenger" depart="978.88" departLane="best" from="373701312#7" to="49874189#3"/>
    <trip id="veh238" type="veh_passenger" depart="983.01" departLane="best" departSpeed="max" from="980735079#0" to="-982221190#4"/>
    <trip id="veh239" type="veh_passenger" depart="987.14" departLane="best" from="-191712630#1" to="-361476386"/>
    <trip id="veh240" type="veh_passenger" depart="991.27" departLane="best" from="358981138" to="390526209"/>
    <trip id="veh241" type="veh_passenger" depart="995.40" departLane="best" from="360924346#4" to="184515323#6"/>
    <trip id="veh242" type="veh_passenger" depart="999.53" departLane="best" from="406874975#3" to="49874189#5"/>
    <trip id="veh243" type="veh_passenger" depart="1003.66" departLane="best" from="-391278435" to="361476384#0"/>
    <trip id="veh244" type="veh_passenger" depart="1007.79" departLane="best" from="49874187#1" to="256813427#5"/>
    <trip id="veh245" type="veh_passenger" depart="1011.92" departLane="best" from="539264850" to="980996796"/>
    <trip id="veh246" type="veh_passenger" depart="1016.05" departLane="best" departSpeed="max" from="-301511504" to="-191712631"/>
    <trip id="veh247" type="veh_passenger" depart="1020.18" departLane="best" departSpeed="max" from="193131678#0" to="390564832#1"/>
    <trip id="veh248" type="veh_passenger" depart="1024.31" departLane="best" departSpeed="max" from="49732812#0" to="193448358"/>
    <trip id="veh249" type="veh_passenger" depart="1028.45" departLane="best" from="406313403#1" to="368559006#0"/>
    <trip id="veh250" type="veh_passenger" depart="1032.58" departLane="best" departSpeed="max" from="-240733801" to="504322133#0"/>
    <trip id="veh251" type="veh_passenger" depart="1036.71" departLane="best" from="539340429#0" to="361257112#1"/>
    <trip id="veh252" type="veh_passenger" depart="1040.84" departLane="best" from="-343333449#8" to="-984944335"/>
    <trip id="veh253" type="veh_passenger" depart="1044.97" departLane="best" from="504333065#3" to="-197203393#2"/>
    <trip id="veh254" type="veh_passenger" depart="1049.10" departLane="best" from="301521094#2" to="199422208#1"/>
    <trip id="veh255" type="veh_passenger" depart="1053.23" departLane="best" from="358980056#0" to="193448359"/>
    <trip id="veh256" type="veh_passenger" depart="1057.36" departLane="best" from="539264863#4" to="539264852"/>
    <trip id="veh257" type="veh_passenger" depart="1061.49" departLane="best" from="-256813427#6" to="368091905#1"/>